geometry optimzed in LAMMPS
_audit_creation_date              2020-11-30 
_audit_creation_method            'lammps2cif' 
_symmetry_space_group_name_H-M    'P1' 
_symmetry_Int_Tables_number       1 
_symmetry_cell_setting            triclinic 
loop_ 
_symmetry_equiv_pos_as_xyz 
  x,y,z 
_cell_length_a                    39.71280169 
_cell_length_b                    39.56436625952872 
_cell_length_c                    91.10309455532526 
_cell_angle_alpha                 90.15778757241648 
_cell_angle_beta                  89.8797513690935 
_cell_angle_gamma                 119.99338247937646 
loop_ 
_atom_site_label 
_atom_site_type_symbol 
_atom_site_fract_x 
_atom_site_fract_y 
_atom_site_fract_z 
_atom_site_charge 
C1          C  0.15477488  0.82591195  0.90049790     0.86500
C2          C  0.12593408  0.78613082  0.90733384    -0.53800
C3          C  0.14252837  0.76741728  0.91432260     0.09400
C4          C  0.18728398  0.78987590  0.91316995     0.20300
C5          C  0.18396106  0.84952699  0.91278487    -0.54500
C6          C  0.20068943  0.83078545  0.91951286     0.09500
C7          C  0.18026344  0.81690661  0.89019079    -0.54000
C8          C  0.19580950  0.79652976  0.89657596     0.10100
H9          H  0.09472595  0.77375010  0.90641990     0.14600
H10         H  0.20140114  0.77527851  0.91869711     0.00300
H11         H  0.19201066  0.87933316  0.91555163     0.14900
H12         H  0.18701002  0.82645051  0.87892671     0.14700
C13         C  0.69630919  0.83553001  0.90304647     0.86500
C14         C  0.68499695  0.85578214  0.91518767    -0.53800
C15         C  0.64640646  0.83709467  0.91892296     0.09400
C16         C  0.62282185  0.79743911  0.91116971     0.20300
C17         C  0.68265648  0.79491778  0.91006916    -0.54500
C18         C  0.64454051  0.77496720  0.91490491     0.09500
C19         C  0.66718715  0.82703250  0.89052783    -0.54000
C20         C  0.62909889  0.80647946  0.89455164     0.10100
H21         H  0.70548319  0.88063293  0.92153093     0.14600
H22         H  0.59191736  0.78296116  0.91440387     0.00300
H23         H  0.70239983  0.78377812  0.91166529     0.14900
H24         H  0.67604627  0.83508966  0.87919319     0.14700
C25         C  0.17002281  0.31208489  0.89998179     0.86500
C26         C  0.18336360  0.34453913  0.88813852    -0.53800
C27         C  0.19955537  0.38187169  0.89354619     0.09400
C28         C  0.19858779  0.38301053  0.91044765     0.20300
C29         C  0.20535809  0.32550730  0.91020046    -0.54500
C30         C  0.22132648  0.36289544  0.91556811     0.09500
C31         C  0.14086994  0.31830069  0.90893294    -0.54000
C32         C  0.15545638  0.35454343  0.91475546     0.10100
H33         H  0.17894614  0.33915022  0.87647610     0.14600
H34         H  0.21057390  0.41311612  0.91438916     0.00300
H35         H  0.21627406  0.30618419  0.91314903     0.14900
H36         H  0.11096763  0.29554381  0.91078939     0.14700
C37         C  0.34509326  0.66548356  0.83611969     0.45400
H38         H  0.34386557  0.66270207  0.84820576    -0.03600
C39         C  0.34675733  0.67120231  0.80780235     0.45500
H40         H  0.34746012  0.67433839  0.79575868    -0.03600
C41         C  0.32717826  0.62522436  0.82846309    -0.17300
C42         C  0.32232215  0.68514521  0.83028642    -0.17000
C43         C  0.38714065  0.68977294  0.82997525    -0.17400
C44         C  0.32887037  0.62816902  0.81325570    -0.17400
C45         C  0.32264817  0.68764609  0.81514293    -0.17000
C46         C  0.38789312  0.69380821  0.81480958    -0.17300
O47         O  0.46189282  0.97715691  0.02312026    -0.74500
O48         O  0.50601869  0.93330367  0.99718837    -0.74500
O49         O  0.53186607  0.98201100  0.02069920    -0.74500
O50         O  0.43538482  0.92821587  0.99953019    -0.74600
O51         O  0.45582559  0.97941940  0.98460792    -0.74500
O52         O  0.55188452  0.03356610  0.00599654    -0.74500
O53         O  0.52674819  0.98481182  0.98242166    -0.74500
O54         O  0.48065930  0.02763515  0.00812239    -0.74500
Ni55       Ni  0.48306076  0.95332469  0.01063464     1.25400
Ni56       Ni  0.50451940  0.00816660  0.99474173     1.25400
C57         C  0.46379762  0.00958954  0.01995761     0.87700
C58         C  0.52402601  0.95200236  0.98562805     0.87700
C59         C  0.55747485  0.01675609  0.01696900     0.87700
C60         C  0.42972039  0.94515552  0.98861656     0.87900
C61         C  0.30483120  0.13715039  0.10435157     0.86500
C62         C  0.33819396  0.15778696  0.11577444    -0.53800
C63         C  0.37535087  0.17606275  0.11001144     0.09400
C64         C  0.37503104  0.17253554  0.09303461     0.20300
C65         C  0.31319816  0.17106806  0.09385114    -0.54500
C66         C  0.34945108  0.18944826  0.08771276     0.09500
C67         C  0.31501784  0.11033233  0.09559008    -0.54000
C68         C  0.35132258  0.12838798  0.08960880     0.10100
H69         H  0.33255295  0.15866128  0.12738242     0.14600
H70         H  0.40443257  0.18664043  0.08804573     0.00300
H71         H  0.29340436  0.18200839  0.09218269     0.14900
H72         H  0.29475494  0.07938199  0.09409934     0.14700
C73         C  0.85226069  0.68420114  0.10293411     0.86500
C74         C  0.87556274  0.67659345  0.09109511    -0.53800
C75         C  0.85854151  0.63874968  0.08613952     0.09400
C76         C  0.81843730  0.61198682  0.09324793     0.20300
C77         C  0.81158321  0.66934259  0.09602464    -0.54500
C78         C  0.79431631  0.63215607  0.09048528     0.09500
C79         C  0.84322730  0.65322264  0.11487114    -0.54000
C80         C  0.82574909  0.61562261  0.10993225     0.10100
H81         H  0.90352869  0.69942830  0.08711868     0.14600
H82         H  0.80420833  0.58136496  0.08932010     0.00300
H83         H  0.79650143  0.68577851  0.09592401     0.14900
H84         H  0.84849128  0.66023133  0.12646255     0.14700
C85         C  0.83965882  0.13641991  0.10269752     0.86500
C86         C  0.80774501  0.11530397  0.09072135    -0.53800
C87         C  0.79075728  0.13611591  0.08555108     0.09400
C88         C  0.80921247  0.17733393  0.09249069     0.20300
C89         C  0.86840411  0.17376374  0.09442885    -0.54500
C90         C  0.85310340  0.19552080  0.08927235     0.09500
C91         C  0.82030478  0.14935300  0.11436777    -0.54000
C92         C  0.80478917  0.17095046  0.10921731     0.10100
H93         H  0.80127500  0.08797376  0.08566506     0.14600
H94         H  0.79670847  0.19528676  0.08871138     0.00300
H95         H  0.89817641  0.18132775  0.09206349     0.14900
H96         H  0.81927649  0.14206907  0.12590648     0.14700
C97         C  0.66952316  0.32520113  0.16389251     0.45400
H98         H  0.67003573  0.32488758  0.15175271    -0.03600
C99         C  0.66776189  0.32527115  0.19229636     0.45500
H100        H  0.66662895  0.32534440  0.20441749    -0.03600
C101        C  0.62743441  0.30545084  0.17009963    -0.17300
C102        C  0.68869447  0.30305616  0.17079509    -0.17000
C103        C  0.69148230  0.36711818  0.17060173    -0.17400
C104        C  0.62661535  0.30503045  0.18528215    -0.17400
C105        C  0.68854940  0.30383444  0.18602434    -0.17000
C106        C  0.68974494  0.36709111  0.18580854    -0.17300
O107        O  0.00756190  0.45363337  0.02141782    -0.74500
O108        O  0.04580460  0.53929698  0.99455252    -0.74500
O109        O  0.00821196  0.52246173  0.02085232    -0.74500
O110        O  0.04553390  0.47128282  0.99515134    -0.74600
O111        O  0.98917604  0.44350035  0.98305630    -0.74500
O112        O  0.95082472  0.49257635  0.00945970    -0.74500
O113        O  0.98833921  0.51137645  0.98334144    -0.74500
O114        O  0.95161716  0.42400744  0.00921051    -0.74500
Ni115      Ni  0.02875602  0.49765836  0.00844205     1.25400
Ni116      Ni  0.96789750  0.46678425  0.99589330     1.25400
C117        C  0.97332123  0.42435283  0.01965724     0.87700
C118        C  0.02352171  0.53927433  0.98440224     0.87700
C119        C  0.97341787  0.51601367  0.01935356     0.87700
C120        C  0.02396987  0.44995357  0.98462444     0.87900
O121        O  0.54242657  0.51773920  0.98680599    -0.74500
O122        O  0.48884146  0.42849448  0.01233457    -0.74500
O123        O  0.47318152  0.44995197  0.98591220    -0.74500
O124        O  0.55780193  0.49526654  0.01318547    -0.74600
O125        O  0.53152714  0.52660999  0.02427757    -0.74500
O126        O  0.44464042  0.47823438  0.99786433    -0.74500
O127        O  0.46220363  0.45865548  0.02425832    -0.74500
O128        O  0.51283271  0.54574915  0.99786197    -0.74500
Ni129      Ni  0.51657568  0.47185286  0.99914260     1.25400
Ni130      Ni  0.48686234  0.50334599  0.01150712     1.25400
C131        C  0.53557820  0.54616838  0.98777632     0.87700
C132        C  0.46714436  0.42923330  0.02264211     0.87700
C133        C  0.44520835  0.45701790  0.98731975     0.87700
C134        C  0.55876982  0.51823209  0.02330665     0.87900
C135        C  0.97850847  0.49227974  0.43470394     0.86500
C136        C  0.01095073  0.50910791  0.44650793    -0.53800
C137        C  0.04803227  0.52133251  0.44154090     0.09400
C138        C  0.04875881  0.51505356  0.42482090     0.20300
C139        C  0.99266686  0.52447685  0.42307240    -0.54500
C140        C  0.02952464  0.53698393  0.41805204     0.09500
C141        C  0.98365000  0.45946456  0.42761914    -0.54000
C142        C  0.01999241  0.47142907  0.42216714     0.10100
H143        H  0.00505973  0.51102257  0.45794484     0.14600
H144        H  0.07773201  0.52353280  0.42026016     0.00300
H145        H  0.97581235  0.53789726  0.41973106     0.14900
H146        H  0.96055695  0.42924724  0.42695484     0.14700
C147        C  0.50330859  0.48065199  0.43759588     0.86500
C148        C  0.47138073  0.45681968  0.42636220    -0.53800
C149        C  0.45678329  0.47683702  0.41910842     0.09400
C150        C  0.47736736  0.52035241  0.42333605     0.20300
C151        C  0.53468556  0.51541106  0.42908463    -0.54500
C152        C  0.52158048  0.53561643  0.42134787     0.09500
C153        C  0.48625310  0.50072198  0.44752857    -0.54000
C154        C  0.47162500  0.52094794  0.44004113     0.10100
H155        H  0.46094674  0.42605560  0.42441678     0.14600
H156        H  0.46573285  0.53625662  0.41731584     0.00300
H157        H  0.56527265  0.52386380  0.42926103     0.14900
H158        H  0.48772395  0.50136186  0.45938606     0.14700
C159        C  0.52866512  0.03065624  0.43400744     0.86500
C160        C  0.55677842  0.01793056  0.42775298    -0.53800
C161        C  0.53895911  0.98159895  0.42177587     0.09400
C162        C  0.49470702  0.95940103  0.42351477     0.20300
C163        C  0.49935346  0.02289382  0.42163095    -0.54500
C164        C  0.48055464  0.98542301  0.41631304     0.09500
C165        C  0.50519420  0.99817723  0.44543087    -0.54000
C166        C  0.48765309  0.96047916  0.44014845     0.10100
H167        H  0.58817454  0.03521490  0.42825971     0.14600
H168        H  0.48207407  0.92976510  0.41885424     0.00300
H169        H  0.49284381  0.04499234  0.41782685     0.14900
H170        H  0.50299752  0.00488023  0.45675061     0.14700
C171        C  0.33964112  0.67222273  0.52548844     0.45400
H172        H  0.34324595  0.67054257  0.53726498    -0.03600
C173        C  0.32858155  0.67005764  0.49751784     0.45500
H174        H  0.32450466  0.66918833  0.48557719    -0.03600
C175        C  0.35809642  0.65104843  0.51692145    -0.17300
C176        C  0.29640277  0.65044698  0.52155132    -0.17000
C177        C  0.35540743  0.71410836  0.51873062    -0.17400
C178        C  0.35300800  0.65090495  0.50186023    -0.17400
C179        C  0.28962410  0.64928602  0.50668668    -0.17000
C180        C  0.35216139  0.71249861  0.50341920    -0.17300
C181        C  0.36240320  0.17698189  0.23619600     0.86500
C182        C  0.35292645  0.20126735  0.24683510    -0.53800
C183        C  0.31746637  0.18134508  0.25353782     0.09400
C184        C  0.29531080  0.13762036  0.24954192     0.20300
C185        C  0.35813264  0.14244400  0.24514019    -0.54500
C186        C  0.32403772  0.12241555  0.25239848     0.09500
C187        C  0.32645449  0.15640159  0.22575125    -0.54000
C188        C  0.29067692  0.13618100  0.23270155     0.10100
H189        H  0.37258874  0.23222402  0.24860135     0.14600
H190        H  0.26762233  0.12239606  0.25550926     0.00300
H191        H  0.37984671  0.13339073  0.24532269     0.14900
H192        H  0.32902784  0.15561961  0.21393772     0.14700
C193        C  0.83062501  0.63050976  0.23904260     0.86500
C194        C  0.84726984  0.66324475  0.22762851    -0.53800
C195        C  0.86710515  0.70014710  0.23318473     0.09400
C196        C  0.86922694  0.70109644  0.25014034     0.20300
C197        C  0.86618398  0.63799816  0.24845041    -0.54500
C198        C  0.88690785  0.67510606  0.25426607     0.09500
C199        C  0.80723735  0.64091883  0.24987558    -0.54000
C200        C  0.82661575  0.67783277  0.25534526     0.10100
H201        H  0.84376119  0.65737126  0.21591888     0.14600
H202        H  0.88502844  0.73105746  0.25474836     0.00300
H203        H  0.87411768  0.61581833  0.25039694     0.14900
H204        H  0.77872239  0.62021589  0.25400187     0.14700
C205        C  0.81956431  0.17196122  0.23897605     0.86500
C206        C  0.79494127  0.13516611  0.24865968    -0.53800
C207        C  0.81569165  0.11919059  0.25488177     0.09400
C208        C  0.85924346  0.14264518  0.25092318     0.20300
C209        C  0.85037979  0.19901371  0.24994739    -0.54500
C210        C  0.87224611  0.18510617  0.25564267     0.09500
C211        C  0.84097915  0.15949183  0.22794018    -0.54000
C212        C  0.86081778  0.14291361  0.23408819     0.10100
H213        H  0.76428967  0.12385230  0.25081890     0.14600
H214        H  0.87587308  0.12996985  0.25561787     0.00300
H215        H  0.85348522  0.22631972  0.25387287     0.14900
H216        H  0.83941692  0.16252846  0.21616035     0.14700
C217        C  0.99753600  0.98607405  0.17835111     0.45400
H218        H  0.99890033  0.98210172  0.19009643    -0.03600
C219        C  0.99793017  0.99158360  0.15020620     0.45500
H220        H  0.99902754  0.99542064  0.13842995    -0.03600
C221        C  0.97333509  0.94563333  0.17043065    -0.17300
C222        C  0.98053042  0.01233153  0.17317989    -0.17000
C223        C  0.03919669  0.00560311  0.17204371    -0.17400
C224        C  0.97231541  0.94851531  0.15520242    -0.17400
C225        C  0.97910859  0.01329618  0.15782479    -0.17000
C226        C  0.03975802  0.00825977  0.15694663    -0.17300
O227        O  0.13101398  0.31671599  0.35690479    -0.74500
O228        O  0.17215524  0.27673373  0.32756441    -0.74500
O229        O  0.19777500  0.31478195  0.35354529    -0.74500
O230        O  0.10447405  0.27797328  0.33141290    -0.74600
O231        O  0.13132367  0.33293506  0.31852565    -0.74500
O232        O  0.22251415  0.37247557  0.34238772    -0.74500
O233        O  0.20021888  0.33453303  0.31635694    -0.74500
O234        O  0.15347209  0.37141565  0.34419822    -0.74500
Ni235      Ni  0.15047389  0.29444479  0.34273875     1.25400
Ni236      Ni  0.17789932  0.35487454  0.32994447     1.25400
C237        C  0.13414377  0.35032307  0.35512316     0.87700
C238        C  0.19380115  0.29954862  0.31731696     0.87700
C239        C  0.22507502  0.35003233  0.35190056     0.87700
C240        C  0.10210382  0.29940389  0.32147017     0.87900
O241        O  0.72931808  0.88598471  0.33265884    -0.74500
O242        O  0.69238079  0.80089942  0.35985413    -0.74500
O243        O  0.73298268  0.81915097  0.33456796    -0.74500
O244        O  0.68861923  0.86668949  0.35823174    -0.74600
O245        O  0.63378803  0.83615790  0.34564752    -0.74500
O246        O  0.67832495  0.78873826  0.32164803    -0.74500
O247        O  0.63734377  0.76948978  0.34706030    -0.74500
O248        O  0.67370639  0.85441480  0.32014092    -0.74500
Ni249      Ni  0.71286688  0.84441752  0.34673397     1.25400
Ni250      Ni  0.65380927  0.81102744  0.33318462     1.25400
C251        C  0.70741821  0.88414180  0.32199635     0.87700
C252        C  0.65856472  0.77119560  0.35791614     0.87700
C253        C  0.71294050  0.79572259  0.32425565     0.87700
C254        C  0.65384232  0.85939218  0.35602909     0.87900
O255        O  0.22308516  0.85628146  0.31418814    -0.74500
O256        O  0.18190405  0.77309824  0.34207856    -0.74500
O257        O  0.15889345  0.78493079  0.31556333    -0.74500
O258        O  0.24668753  0.84494283  0.34070773    -0.74600
O259        O  0.21441064  0.86993608  0.35224610    -0.74500
O260        O  0.12817156  0.81273444  0.32625563    -0.74500
O261        O  0.14968160  0.79893102  0.35294943    -0.74500
O262        O  0.19389680  0.88381513  0.32583310    -0.74500
Ni263      Ni  0.20381740  0.81387664  0.32776338     1.25400
Ni264      Ni  0.17027167  0.84216678  0.33969502     1.25400
C265        C  0.21601060  0.88433214  0.31550388     0.87700
C266        C  0.15879124  0.77216710  0.35209308     0.87700
C267        C  0.12932683  0.78959095  0.31664379     0.87700
C268        C  0.24491906  0.86717310  0.35058475     0.87900
C269        C  0.65929859  0.83487984  0.77028401     0.86500
C270        C  0.69244621  0.84967679  0.78149036    -0.53800
C271        C  0.72891394  0.86725203  0.77555307     0.09400
C272        C  0.72888016  0.86791089  0.75859567     0.20300
C273        C  0.66891444  0.86975751  0.76030497    -0.54500
C274        C  0.70505875  0.88746776  0.75442070     0.09500
C275        C  0.66623730  0.80791814  0.75986568    -0.54000
C276        C  0.70288250  0.82479153  0.75374774     0.10100
H277        H  0.68728260  0.84632222  0.79324318     0.14600
H278        H  0.75858742  0.88271388  0.75389073     0.00300
H279        H  0.64783263  0.87775155  0.75676033     0.14900
H280        H  0.64374140  0.77829811  0.75731364     0.14700
C281        C  0.19150478  0.35532583  0.76989055     0.86500
C282        C  0.21466175  0.34184277  0.76039866    -0.53800
C283        C  0.19452423  0.30424203  0.75570535     0.09400
C284        C  0.15172492  0.28285780  0.76073932     0.20300
C285        C  0.15661431  0.34664919  0.75980928    -0.54500
C286        C  0.13532449  0.30856726  0.75505588     0.09500
C287        C  0.17401405  0.32512977  0.78224511    -0.54000
C288        C  0.15342657  0.28724948  0.77763358     0.10100
H289        H  0.24373383  0.36094845  0.75645029     0.14600
H290        H  0.13504293  0.25212356  0.75694502     0.00300
H291        H  0.14972934  0.36889571  0.75658238     0.14900
H292        H  0.17816597  0.33316361  0.79378192     0.14700
C293        C  0.17806546  0.81402020  0.76753787     0.86500
C294        C  0.13911161  0.78867860  0.75953661    -0.53800
C295        C  0.12282093  0.80891803  0.75343771     0.09400
C296        C  0.14691735  0.85330918  0.75642084     0.20300
C297        C  0.20396379  0.84566752  0.75633677    -0.54500
C298        C  0.18813169  0.86639997  0.75048530     0.09500
C299        C  0.16927436  0.83783671  0.77887046    -0.54000
C300        C  0.15158237  0.85698718  0.77325299     0.10100
H301        H  0.12575106  0.75718729  0.75870374     0.14600
H302        H  0.13423398  0.87028435  0.75172067     0.00300
H303        H  0.23318894  0.85212666  0.75360730     0.14900
H304        H  0.17702893  0.84066086  0.79036275     0.14700
C305        C  0.01388559  0.00269976  0.83395241     0.45400
H306        H  0.01517318  0.00454681  0.82187468    -0.03600
C307        C  0.01139831  0.99686997  0.86226742     0.45500
H308        H  0.01096502  0.99508913  0.87438662    -0.03600
C309        C  0.97137193  0.98025800  0.83993426    -0.17300
C310        C  0.03443664  0.98067170  0.83954164    -0.17000
C311        C  0.03386047  0.04334690  0.84178529    -0.17400
C312        C  0.96981063  0.97756254  0.85522687    -0.17400
C313        C  0.03358953  0.97770703  0.85464892    -0.17000
C314        C  0.03148873  0.03994534  0.85706153    -0.17300
C315        C  0.50577208  0.98248736  0.56768490     0.86500
C316        C  0.52103825  0.01431972  0.55577044    -0.53800
C317        C  0.54118907  0.05160311  0.56094675     0.09400
C318        C  0.54375567  0.05416130  0.57784987     0.20300
C319        C  0.54108676  0.99140809  0.57727826    -0.54500
C320        C  0.56143928  0.02882616  0.58250459     0.09500
C321        C  0.48105549  0.99436379  0.57726097    -0.54000
C322        C  0.50087459  0.03145974  0.58298197     0.10100
H323        H  0.51448859  0.00808320  0.54418090     0.14600
H324        H  0.56061728  0.08446284  0.58202483     0.00300
H325        H  0.54908651  0.96952990  0.57978405     0.14900
H326        H  0.45002250  0.97602501  0.57889523     0.14700
C327        C  0.02995124  0.51779334  0.56821009     0.86500
C328        C  0.02091499  0.53694896  0.58133155    -0.53800
C329        C  0.98363324  0.51704260  0.58634067     0.09400
C330        C  0.95910485  0.47718201  0.57879632     0.20300
C331        C  0.01999132  0.47790342  0.57454057    -0.54500
C332        C  0.98350700  0.45685615  0.58031261     0.09500
C333        C  0.99724834  0.50849333  0.55692419    -0.54000
C334        C  0.96000143  0.48647332  0.56230824     0.10100
H335        H  0.04180922  0.56290646  0.58702864     0.14600
H336        H  0.92935727  0.45983609  0.58339061     0.00300
H337        H  0.04097017  0.46797239  0.57514140     0.14900
H338        H  0.00323545  0.51789060  0.54556718     0.14700
C339        C  0.48274731  0.51049639  0.56888572     0.86500
C340        C  0.45739321  0.47590843  0.57918379    -0.53800
C341        C  0.47520361  0.45648499  0.58459849     0.09400
C342        C  0.51749936  0.47378543  0.57894863     0.20300
C343        C  0.51960394  0.53628800  0.57768013    -0.54500
C344        C  0.53781548  0.51760406  0.58298182     0.09500
C345        C  0.49493063  0.49059793  0.55689992    -0.54000
C346        C  0.51380126  0.47176312  0.56201892     0.10100
H347        H  0.42704171  0.46567936  0.58133421     0.14600
H348        H  0.53304763  0.45910821  0.58317529     0.00300
H349        H  0.53007023  0.56698095  0.57984989     0.14900
H350        H  0.48803870  0.49064440  0.54539035     0.14700
C351        C  0.67113340  0.33853940  0.50707461     0.45400
H352        H  0.67337037  0.33961832  0.51903299    -0.03600
C353        C  0.67170869  0.34069036  0.47886486     0.45500
H354        H  0.67248301  0.34402202  0.46705610    -0.03600
C355        C  0.64856322  0.29687927  0.50009231    -0.17300
C356        C  0.64950181  0.35850881  0.50125338    -0.17000
C357        C  0.71286864  0.36079771  0.50043702    -0.17400
C358        C  0.65358396  0.29794190  0.48471889    -0.17400
C359        C  0.64906349  0.35948031  0.48615939    -0.17000
C360        C  0.71309843  0.36181620  0.48529622    -0.17300
O361        O  0.88666573  0.70932137  0.67490043    -0.74500
O362        O  0.79972267  0.66726072  0.64863439    -0.74500
O363        O  0.81921516  0.70970682  0.67395351    -0.74500
O364        O  0.86777994  0.66696554  0.64956936    -0.74600
O365        O  0.83715797  0.61104514  0.66202340    -0.74500
O366        O  0.79260127  0.65549897  0.68749456    -0.74500
O367        O  0.76990975  0.61375728  0.66227954    -0.74500
O368        O  0.85990306  0.65351088  0.68710231    -0.74500
Ni369      Ni  0.84434467  0.69023077  0.66126942     1.25400
Ni370      Ni  0.81384930  0.63144814  0.67516562     1.25400
C371        C  0.88790265  0.68857145  0.68541226     0.87700
C372        C  0.76997285  0.63379817  0.65123278     0.87700
C373        C  0.79868165  0.68988328  0.68492333     0.87700
C374        C  0.86029166  0.63191539  0.65178669     0.87900
O375        O  0.37791149  0.21903469  0.65875733    -0.74500
O376        O  0.34824365  0.13491081  0.68617337    -0.74500
O377        O  0.38493263  0.15494890  0.65969060    -0.74500
O378        O  0.34155004  0.19988638  0.68494147    -0.74600
O379        O  0.28428097  0.16521257  0.67421135    -0.74500
O380        O  0.32812142  0.12009684  0.64861581    -0.74500
O381        O  0.29119520  0.10087047  0.67478327    -0.74500
O382        O  0.32061502  0.18498106  0.64753334    -0.74500
Ni383      Ni  0.36513045  0.17833652  0.67280312     1.25400
Ni384      Ni  0.30402107  0.14166720  0.66083911     1.25400
C385        C  0.35414811  0.21571985  0.64862973     0.87700
C386        C  0.31474085  0.10408634  0.68496854     0.87700
C387        C  0.36398444  0.12990752  0.64998065     0.87700
C388        C  0.30565798  0.18977820  0.68404290     0.87900
O389        O  0.87612879  0.20788407  0.68672398    -0.74500
O390        O  0.79430863  0.15786957  0.65834777    -0.74500
O391        O  0.81006124  0.13801051  0.68487617    -0.74500
O392        O  0.86022303  0.22730355  0.65989505    -0.74600
O393        O  0.89565558  0.20392678  0.65016230    -0.74500
O394        O  0.83904735  0.11091485  0.67270360    -0.74500
O395        O  0.82842411  0.13541457  0.64650408    -0.74500
O396        O  0.90658409  0.17919405  0.67652018    -0.74500
Ni397      Ni  0.83408335  0.18376441  0.67287910     1.25400
Ni398      Ni  0.86869362  0.15652932  0.66110187     1.25400
C399        C  0.90435110  0.20093579  0.68647212     0.87700
C400        C  0.79817278  0.13890556  0.64768824     0.87700
C401        C  0.81545376  0.10909059  0.68265782     0.87700
C402        C  0.88605422  0.23031006  0.65072189     0.87900
C403        C  0.62753842  0.37118809  0.51130470     0.01300
C404        C  0.58647880  0.35290091  0.51058411     0.04100
C405        C  0.56627803  0.36735279  0.51878749    -0.11900
C406        C  0.58653443  0.39874194  0.52852102     0.23400
C407        C  0.62663303  0.41411310  0.53063928    -0.12500
C408        C  0.64706782  0.40034556  0.52217482     0.04800
C409        C  0.56587250  0.41588642  0.53650739     0.27300
C410        C  0.56868441  0.45069465  0.53149820    -0.13200
C411        C  0.55150534  0.46875242  0.53950608     0.05400
C412        C  0.52927334  0.45104773  0.55240273    -0.09200
C413        C  0.52422628  0.41408211  0.55654540     0.06200
C414        C  0.54394943  0.39780028  0.54910392    -0.13500
Br415      Br  0.65331142  0.45416877  0.54531210    -0.05600
Br416      Br  0.55668382  0.30453846  0.50030812     0.00000
Br417      Br  0.56178209  0.51877186  0.53262601     0.00500
Br418      Br  0.54183322  0.35080757  0.55630293    -0.03900
Br419      Br  0.70160429  0.42200456  0.52595940     0.00600
Br420      Br  0.51053981  0.34370020  0.51695565    -0.03200
Br421      Br  0.59751191  0.47410547  0.51369018    -0.04100
Br422      Br  0.48732603  0.38206947  0.57117981    -0.00100
C423        C  0.57229675  0.53778403  0.59274937     0.01300
C424        C  0.60929486  0.54614170  0.58776659     0.04100
C425        C  0.64164254  0.56425670  0.59720121    -0.11900
C426        C  0.63695491  0.57298504  0.61180707     0.23400
C427        C  0.60028941  0.56586298  0.61667166    -0.12500
C428        C  0.56830461  0.54950708  0.60703060     0.04800
C429        C  0.67041197  0.58864749  0.62213352     0.27300
C430        C  0.67962971  0.56289843  0.62931040    -0.13200
C431        C  0.71216440  0.57739577  0.63867024     0.05400
C432        C  0.73530962  0.61815360  0.64132716    -0.09200
C433        C  0.72498212  0.64381287  0.63434896     0.06200
C434        C  0.69308043  0.62902947  0.62464573    -0.13500
Br435      Br  0.59382733  0.57755517  0.63670664    -0.05600
Br436      Br  0.61623531  0.53468754  0.56781237     0.00000
Br437      Br  0.72518007  0.54048520  0.64701332     0.00500
Br438      Br  0.68006747  0.66398715  0.61465056    -0.03900
Br439      Br  0.51880057  0.54217197  0.61366202     0.00600
Br440      Br  0.69265985  0.57756316  0.59016571    -0.03200
Br441      Br  0.64715530  0.50736432  0.62620413    -0.04100
Br442      Br  0.75251643  0.69923807  0.63840717    -0.00100
C443        C  0.36611854  0.24789546  0.63799659     0.01300
C444        C  0.38916182  0.25048830  0.62579209     0.04100
C445        C  0.40353568  0.28289924  0.61632753    -0.11900
C446        C  0.39528226  0.31310214  0.61912079     0.23400
C447        C  0.37134814  0.30997719  0.63110177    -0.12500
C448        C  0.35676862  0.27741713  0.64051702     0.04800
C449        C  0.41494575  0.34979532  0.61038507     0.27300
C450        C  0.45190644  0.37974030  0.61468597    -0.13200
C451        C  0.47128520  0.41462931  0.60656377     0.05400
C452        C  0.45401276  0.41996823  0.59378063    -0.09200
C453        C  0.41704125  0.38883176  0.58927537     0.06200
C454        C  0.39749142  0.35440898  0.59772336    -0.13500
Br455      Br  0.36003273  0.35125852  0.63489879    -0.05600
Br456      Br  0.40211942  0.21018983  0.62236350     0.00000
Br457      Br  0.52148902  0.45397895  0.61349763     0.00500
Br458      Br  0.34706317  0.31260380  0.59179002    -0.03900
Br459      Br  0.32550904  0.27404142  0.65728459     0.00600
Br460      Br  0.43587068  0.28686184  0.59983706    -0.03200
Br461      Br  0.47616973  0.37222660  0.63180665    -0.04100
Br462      Br  0.39481498  0.38984311  0.57050949    -0.00100
C463        C  0.92361717  0.47054423  0.55304467     0.01300
C464        C  0.89126766  0.47415507  0.55761676     0.04100
C465        C  0.85622027  0.45625657  0.54957872    -0.11900
C466        C  0.85325326  0.43575172  0.53660672     0.23400
C467        C  0.88510086  0.43259728  0.53174404    -0.12500
C468        C  0.91962845  0.44891442  0.54003952     0.04800
C469        C  0.81657861  0.41729381  0.52797901     0.27300
C470        C  0.78873620  0.37792319  0.53019216    -0.13200
C471        C  0.75497677  0.35970745  0.52143480     0.05400
C472        C  0.74884708  0.38069428  0.51006687    -0.09200
C473        C  0.77667127  0.42110950  0.50847276     0.06200
C474        C  0.81015775  0.43901528  0.51736430    -0.13500
Br475      Br  0.88062681  0.40485375  0.51369318    -0.05600
Br476      Br  0.89368786  0.50445428  0.57446932     0.00000
Br477      Br  0.71900620  0.30540078  0.52510098     0.00500
Br478      Br  0.84738400  0.49406689  0.51546315    -0.03900
Br479      Br  0.95879210  0.43697983  0.53397530     0.00600
Br480      Br  0.81158115  0.45932719  0.55627891    -0.03200
Br481      Br  0.79747596  0.34910443  0.54537057    -0.04100
Br482      Br  0.76868607  0.45451525  0.49543994    -0.00100
C483        C  0.96798281  0.53490486  0.59689197     0.01300
C484        C  0.94899065  0.51560153  0.60996885     0.04100
C485        C  0.93131548  0.53120269  0.61906621    -0.11900
C486        C  0.93417954  0.56722215  0.61559536     0.23400
C487        C  0.95451241  0.58745951  0.60293614    -0.12500
C488        C  0.97014445  0.57085974  0.59336317     0.04800
C489        C  0.91494087  0.58343752  0.62500485     0.27300
C490        C  0.87931761  0.58004374  0.62059468    -0.13200
C491        C  0.86167088  0.59641238  0.62926581     0.05400
C492        C  0.87905123  0.61538719  0.64253898    -0.09200
C493        C  0.91429424  0.61827288  0.64707156     0.06200
C494        C  0.93251276  0.60284026  0.63821977    -0.13500
Br495      Br  0.96023347  0.63784267  0.59860005    -0.05600
Br496      Br  0.94784277  0.46847735  0.61587032     0.00000
Br497      Br  0.81373080  0.59299450  0.62297595     0.00500
Br498      Br  0.98188954  0.60880998  0.64402772    -0.03900
Br499      Br  0.98932060  0.59522074  0.57450101     0.00600
Br500      Br  0.90229901  0.50288414  0.63618635    -0.03200
Br501      Br  0.85466649  0.55282145  0.60268102    -0.04100
Br502      Br  0.93751813  0.64338654  0.66544772    -0.00100
C503        C  0.97120305  0.42121204  0.58935038     0.01300
C504        C  0.93540621  0.38692516  0.58655754     0.04100
C505        C  0.92136513  0.35516206  0.59630062    -0.11900
C506        C  0.94394553  0.35666230  0.60844160     0.23400
C507        C  0.98076305  0.38965367  0.61073492    -0.12500
C508        C  0.99404632  0.42224730  0.60149466     0.04800
C509        C  0.92888043  0.32409586  0.61911592     0.27300
C510        C  0.91472815  0.32804087  0.63279012    -0.13200
C511        C  0.90358923  0.29887059  0.64351403     0.05400
C512        C  0.90350473  0.26370450  0.64020121    -0.09200
C513        C  0.91762262  0.25991043  0.62624658     0.06200
C514        C  0.93091732  0.29041158  0.61595002    -0.13500
Br515      Br  0.01254000  0.39030730  0.62690745    -0.05600
Br516      Br  0.90604710  0.38229885  0.56911287     0.00000
Br517      Br  0.89124146  0.30958219  0.66292676     0.00500
Br518      Br  0.95200864  0.28632621  0.59730746    -0.03900
Br519      Br  0.04173795  0.46917631  0.60673598     0.00600
Br520      Br  0.87073911  0.30983017  0.59327695    -0.03200
Br521      Br  0.91027477  0.37367300  0.63672106    -0.04100
Br522      Br  0.91800056  0.21303664  0.62034643    -0.00100
C523        C  0.62099736  0.26098993  0.50946607     0.01300
C524        C  0.59433706  0.22473612  0.50306906     0.04100
C525        C  0.58289512  0.18966087  0.51063742    -0.11900
C526        C  0.59113390  0.19064837  0.52566888     0.23400
C527        C  0.60755159  0.22662468  0.53308814    -0.12500
C528        C  0.61987969  0.26147779  0.52514905     0.04800
C529        C  0.57809893  0.15385232  0.53403830     0.27300
C530        C  0.53817773  0.12808636  0.53665766    -0.13200
C531        C  0.52612932  0.09304229  0.54435053     0.05400
C532        C  0.55402299  0.08602493  0.55117091    -0.09200
C533        C  0.59391961  0.11264793  0.54903710     0.06200
C534        C  0.60583167  0.14537473  0.53991474    -0.13500
Br535      Br  0.60998363  0.22763164  0.55429664    -0.05600
Br536      Br  0.56169671  0.22322307  0.48740794     0.00000
Br537      Br  0.47116747  0.05633706  0.54646557     0.00500
Br538      Br  0.66026247  0.17888175  0.53545743    -0.03900
Br539      Br  0.61614526  0.30166580  0.53588675     0.00600
Br540      Br  0.55550825  0.14040361  0.50047787    -0.03200
Br541      Br  0.50009385  0.14215931  0.53072802    -0.04100
Br542      Br  0.63255715  0.10468921  0.55854810    -0.00100
C543        C  0.76681886  0.12046761  0.63673946     0.01300
C544        C  0.76660350  0.14166802  0.62437668     0.04100
C545        C  0.73458482  0.12540127  0.61475319    -0.11900
C546        C  0.70247107  0.08816023  0.61762046     0.23400
C547        C  0.70335850  0.06642761  0.62969903    -0.12500
C548        C  0.73573201  0.08237942  0.63912756     0.04800
C549        C  0.66670770  0.07296801  0.60856721     0.27300
C550        C  0.63629494  0.07881756  0.61326108    -0.13200
C551        C  0.60177569  0.06379122  0.60502888     0.05400
C552        C  0.59771875  0.04371588  0.59161922    -0.09200
C553        C  0.62899470  0.03852443  0.58688642     0.06200
C554        C  0.66296864  0.05264143  0.59545064    -0.13500
Br555      Br  0.65949765  0.01538973  0.63359048    -0.05600
Br556      Br  0.80979993  0.19328569  0.62083210     0.00000
Br557      Br  0.56008286  0.06940013  0.61312367     0.00500
Br558      Br  0.70493414  0.04449282  0.58927850    -0.03900
Br559      Br  0.73746468  0.05222001  0.65539058     0.00600
Br560      Br  0.73397269  0.15446694  0.59788839    -0.03200
Br561      Br  0.64234265  0.10770916  0.63117100    -0.04100
Br562      Br  0.62748036  0.01428106  0.56831488    -0.00100
C563        C  0.38188730  0.11251036  0.64028981     0.01300
C564        C  0.36526385  0.09588676  0.62641529     0.04100
C565        C  0.38312938  0.08060783  0.61728537    -0.11900
C566        C  0.41819885  0.08296971  0.62153379     0.23400
C567        C  0.43482311  0.09901377  0.63520365    -0.12500
C568        C  0.41663287  0.11307332  0.64469459     0.04800
C569        C  0.43864806  0.06979180  0.61144210     0.27300
C570        C  0.43680997  0.03391564  0.61381849    -0.13200
C571        C  0.45971066  0.02341858  0.60532004     0.05400
C572        C  0.48169216  0.04670920  0.59325518    -0.09200
C573        C  0.48435491  0.08363330  0.59130757     0.06200
C574        C  0.46289095  0.09492344  0.60039591    -0.13500
Br575      Br  0.48325995  0.10197344  0.64079020    -0.05600
Br576      Br  0.31932974  0.09520555  0.61895875     0.00000
Br577      Br  0.46639929  0.98133479  0.61234268     0.00500
Br578      Br  0.46679923  0.14536359  0.59798346    -0.03900
Br579      Br  0.44023245  0.13156807  0.66380953     0.00600
Br580      Br  0.36001240  0.05652204  0.59871564    -0.03200
Br581      Br  0.40331573  0.99955647  0.62904952    -0.04100
Br582      Br  0.51817869  0.12094260  0.57707273    -0.00100
C583        C  0.13510753  0.87596678  0.78287054     0.01300
C584        C  0.14691916  0.91590902  0.78133887     0.04100
C585        C  0.12987517  0.93286941  0.79007086    -0.11900
C586        C  0.10208903  0.91055042  0.80085744     0.23400
C587        C  0.09025991  0.87078936  0.80246751    -0.12500
C588        C  0.10582280  0.85332200  0.79327698     0.04800
C589        C  0.08507055  0.92876848  0.81046492     0.27300
C590        C  0.10702148  0.95356714  0.82195949    -0.13200
C591        C  0.09194526  0.97268717  0.83051395     0.05400
C592        C  0.05239187  0.96329541  0.82916217    -0.09200
C593        C  0.03073840  0.93819334  0.81728827     0.06200
C594        C  0.04746864  0.92222495  0.80782643    -0.13500
Br595      Br  0.05193175  0.84004119  0.81715459    -0.05600
Br596      Br  0.18700692  0.94815645  0.76760937     0.00000
Br597      Br  0.12977133  0.01816112  0.84074399     0.00500
Br598      Br  0.01921768  0.89148285  0.79089807    -0.03900
Br599      Br  0.08278380  0.79734310  0.79381100     0.00600
Br600      Br  0.14395861  0.98668269  0.78710465    -0.03200
Br601      Br  0.15893912  0.96259488  0.82552566    -0.04100
Br602      Br  0.97781694  0.92373297  0.81337702    -0.00100
C603        C  0.08653338  0.78989634  0.74409779     0.01300
C604        C  0.05586544  0.79824401  0.74614051     0.04100
C605        C  0.02300453  0.78137773  0.73687436    -0.11900
C606        C  0.01961058  0.75523401  0.72574555     0.23400
C607        C  0.04938522  0.74636374  0.72367868    -0.12500
C608        C  0.08306833  0.76433604  0.73245177     0.04800
C609        C  0.98565585  0.73856791  0.71563774     0.27300
C610        C  0.95049611  0.70556458  0.71974536    -0.13200
C611        C  0.91825611  0.68994208  0.71019109     0.05400
C612        C  0.92181212  0.70562506  0.69582445    -0.09200
C613        C  0.95801687  0.73861252  0.69172752     0.06200
C614        C  0.98899584  0.75563742  0.70182153    -0.13500
Br615      Br  0.04405280  0.70999049  0.70840091    -0.05600
Br616      Br  0.05679929  0.83207706  0.76150303     0.00000
Br617      Br  0.86926281  0.64878138  0.71775589     0.00500
Br618      Br  0.03654734  0.80299706  0.69688710    -0.03900
Br619      Br  0.12579257  0.75705958  0.72684271     0.00600
Br620      Br  0.98243063  0.79451744  0.73909394    -0.03200
Br621      Br  0.94689116  0.68190298  0.73864550    -0.04100
Br622      Br  0.96767138  0.76063659  0.67218797    -0.00100
C623        C  0.21027718  0.90069020  0.74043790     0.01300
C624        C  0.19395880  0.90323605  0.72695169     0.04100
C625        C  0.21374943  0.93663332  0.71801684    -0.11900
C626        C  0.25033215  0.96761250  0.72225493     0.23400
C627        C  0.26745825  0.96476586  0.73535173    -0.12500
C628        C  0.24751346  0.93182746  0.74450824     0.04800
C629        C  0.26978443  0.00400985  0.71329509     0.27300
C630        C  0.29234704  0.00651756  0.70092109    -0.13200
C631        C  0.30860457  0.04012742  0.69200041     0.05400
C632        C  0.30242258  0.07138270  0.69540384    -0.09200
C633        C  0.28097840  0.06942826  0.70803790     0.06200
C634        C  0.26468731  0.03584801  0.71695212    -0.13500
Br635      Br  0.31822089  0.00681750  0.74081559    -0.05600
Br636      Br  0.14519129  0.86083006  0.72010298     0.00000
Br637      Br  0.33870906  0.04319135  0.67490391     0.00500
Br638      Br  0.23430000  0.03281164  0.73397649    -0.03900
Br639      Br  0.27054015  0.93190688  0.76320289     0.00600
Br640      Br  0.19059794  0.94046436  0.69992219    -0.03200
Br641      Br  0.30011208  0.96344957  0.69604280    -0.04100
Br642      Br  0.27317670  0.11247912  0.71292468    -0.00100
C643        C  0.05389879  0.08168888  0.83311185     0.01300
C644        C  0.08157415  0.08839425  0.82177656     0.04100
C645        C  0.09966828  0.12362352  0.81375377    -0.11900
C646        C  0.09126749  0.15332323  0.81686904     0.23400
C647        C  0.06324279  0.14696599  0.82759062    -0.12500
C648        C  0.04280211  0.11060457  0.83478143     0.04800
C649        C  0.10722714  0.18844622  0.80722899     0.27300
C650        C  0.14643654  0.21823814  0.80831217    -0.13200
C651        C  0.16151075  0.25042875  0.79870970     0.05400
C652        C  0.13716332  0.25360027  0.78808234    -0.09200
C653        C  0.09787425  0.22359422  0.78708012     0.06200
C654        C  0.08340973  0.19073204  0.79628226    -0.13500
Br655      Br  0.05060090  0.18745675  0.83151986    -0.05600
Br656      Br  0.09276207  0.04929430  0.81501341     0.00000
Br657      Br  0.21660361  0.28795011  0.79943168     0.00500
Br658      Br  0.03127084  0.14750903  0.79333567    -0.03900
Br659      Br  0.99253019  0.09750185  0.84215497     0.00600
Br660      Br  0.13431930  0.13062280  0.79751281    -0.03200
Br661      Br  0.18038324  0.21375965  0.82231415    -0.04100
Br662      Br  0.06252054  0.22739366  0.77367990    -0.00100
C663        C  0.09987091  0.29347967  0.74532968     0.01300
C664        C  0.06809620  0.29855379  0.74939162     0.04100
C665        C  0.03468258  0.28388131  0.74046143    -0.11900
C666        C  0.03220349  0.26365194  0.72745890     0.23400
C667        C  0.06292958  0.25767814  0.72341628    -0.12500
C668        C  0.09651460  0.27243655  0.73220604     0.04800
C669        C  0.99748610  0.24881393  0.71782262     0.27300
C670        C  0.96590753  0.21069833  0.71971031    -0.13200
C671        C  0.93442730  0.19569692  0.70983793     0.05400
C672        C  0.93503583  0.21824921  0.69777499    -0.09200
C673        C  0.96610276  0.25671517  0.69613303     0.06200
C674        C  0.99712297  0.27208769  0.70620903    -0.13500
Br675      Br  0.05851562  0.22893093  0.70560232    -0.05600
Br676      Br  0.06761466  0.32228713  0.76776027     0.00000
Br677      Br  0.89016565  0.14454558  0.71297057     0.00500
Br678      Br  0.03986586  0.32464720  0.70392150    -0.03900
Br679      Br  0.13727157  0.26389306  0.72531841     0.00600
Br680      Br  0.99149325  0.29065702  0.74605721    -0.03200
Br681      Br  0.96661592  0.17874426  0.73553892    -0.04100
Br682      Br  0.96669021  0.28786280  0.67980175    -0.00100
C683        C  0.28906859  0.20655344  0.69466893     0.01300
C684        C  0.30930179  0.22457709  0.70794047     0.04100
C685        C  0.29458747  0.24175873  0.71761398    -0.11900
C686        C  0.25863662  0.23901187  0.71482188     0.23400
C687        C  0.23757302  0.22018632  0.70212366    -0.12500
C688        C  0.25292674  0.20481907  0.69186032     0.04800
C689        C  0.24286004  0.25593211  0.72538171     0.27300
C690        C  0.22351202  0.23500867  0.73805033    -0.13200
C691        C  0.20902856  0.25128878  0.74824480     0.05400
C692        C  0.21206931  0.28787862  0.74542496    -0.09200
C693        C  0.23117247  0.30850027  0.73243206     0.06200
C694        C  0.24749337  0.29295953  0.72274132    -0.13500
Br695      Br  0.18732154  0.21566713  0.69894934    -0.05600
Br696      Br  0.35611678  0.22475840  0.71408198     0.00000
Br697      Br  0.18689943  0.22347292  0.76621812     0.00500
Br698      Br  0.27611292  0.32211055  0.70565830    -0.03900
Br699      Br  0.22365418  0.18296859  0.67398184     0.00600
Br700      Br  0.32362908  0.26952213  0.73490262    -0.03200
Br701      Br  0.21697636  0.18380667  0.74132464    -0.04100
Br702      Br  0.23125051  0.35556812  0.72654801    -0.00100
C703        C  0.76501944  0.88518402  0.78477333     0.01300
C704        C  0.76997523  0.91170102  0.79625443     0.04100
C705        C  0.80359198  0.92784697  0.80508260    -0.11900
C706        C  0.83290105  0.91856792  0.80238299     0.23400
C707        C  0.82882317  0.89331253  0.79078588    -0.12500
C708        C  0.79483401  0.87607402  0.78219644     0.04800
C709        C  0.86786939  0.93456797  0.81192264     0.27300
C710        C  0.90022545  0.97105265  0.80887116    -0.13200
C711        C  0.93399336  0.98582917  0.81762006     0.05400
C712        C  0.93611943  0.96359681  0.82964428    -0.09200
C713        C  0.90373171  0.92520048  0.83165935     0.06200
C714        C  0.86950310  0.91187240  0.82335512    -0.13500
Br715      Br  0.87027137  0.88232488  0.78681311    -0.05600
Br716      Br  0.73221905  0.92815222  0.79973482     0.00000
Br717      Br  0.97502144  0.03724822  0.81253070     0.00500
Br718      Br  0.82420824  0.86165627  0.82734233    -0.03900
Br719      Br  0.78915191  0.83791691  0.76777649     0.00600
Br720      Br  0.80994993  0.96301473  0.82093546    -0.03200
Br721      Br  0.89746528  0.00068601  0.79248057    -0.04100
Br722      Br  0.90596490  0.88718139  0.84403122    -0.00100
C723        C  0.71708680  0.91918302  0.74350798     0.01300
C724        C  0.69677147  0.91189454  0.73003441     0.04100
C725        C  0.70972456  0.94131298  0.71933812    -0.11900
C726        C  0.74121230  0.97864695  0.72242474     0.23400
C727        C  0.75965336  0.98670859  0.73619688    -0.12500
C728        C  0.74842601  0.95676225  0.74654328     0.04800
C729        C  0.75730665  0.00892357  0.71092125     0.27300
C730        C  0.79204870  0.01699667  0.70389127    -0.13200
C731        C  0.81129784  0.04964865  0.69469996     0.05400
C732        C  0.79444277  0.07329874  0.69178189    -0.09200
C733        C  0.75749102  0.06263344  0.69790805     0.06200
C734        C  0.73970328  0.03126236  0.70778916    -0.13500
Br735      Br  0.80078509  0.03899406  0.74072945    -0.05600
Br736      Br  0.65362214  0.86063367  0.72545626     0.00000
Br737      Br  0.86193080  0.06211618  0.68725869     0.00500
Br738      Br  0.69161772  0.01930455  0.71743271    -0.03900
Br739      Br  0.77619681  0.96786323  0.76480666     0.00600
Br740      Br  0.68584701  0.93007892  0.70016786    -0.03200
Br741      Br  0.81364491  0.98336948  0.70729405    -0.04100
Br742      Br  0.72941869  0.08907135  0.69255208    -0.00100
C743        C  0.78237319  0.70722167  0.69496680     0.01300
C744        C  0.80642518  0.73454939  0.70559470     0.04100
C745        C  0.79105420  0.75129278  0.71519631    -0.11900
C746        C  0.75160953  0.74088819  0.71415816     0.23400
C747        C  0.72741877  0.71318226  0.70364717    -0.12500
C748        C  0.74279343  0.69626073  0.69408048     0.04800
C749        C  0.73651430  0.76078872  0.72371555     0.27300
C750        C  0.71893890  0.74438973  0.73720487    -0.13200
C751        C  0.70888725  0.76551314  0.74703134     0.05400
C752        C  0.71539190  0.80323372  0.74332858    -0.09200
C753        C  0.73408880  0.81966139  0.72970574     0.06200
C754        C  0.74349178  0.79804031  0.71988674    -0.13500
Br755      Br  0.67351859  0.69907395  0.70225376    -0.05600
Br756      Br  0.86035933  0.74869977  0.70713128     0.00000
Br757      Br  0.69172257  0.74407739  0.76631239     0.00500
Br758      Br  0.76654118  0.81931501  0.70095579    -0.03900
Br759      Br  0.71005751  0.65879128  0.67950261     0.00600
Br760      Br  0.82404516  0.78888645  0.72973518    -0.03200
Br761      Br  0.70972322  0.69304850  0.74227519    -0.04100
Br762      Br  0.74963709  0.87206494  0.72394661    -0.00100
C763        C  0.96769991  0.03471204  0.18362628     0.01300
C764        C  0.95235549  0.02151983  0.19809900     0.04100
C765        C  0.92865966  0.03427613  0.20476105    -0.11900
C766        C  0.92795878  0.06691132  0.19927727     0.23400
C767        C  0.95008410  0.08600081  0.18684365    -0.12500
C768        C  0.97049862  0.07069939  0.17924331     0.04800
C769        C  0.91051627  0.08560854  0.20826905     0.27300
C770        C  0.87225199  0.07700943  0.20578986    -0.13200
C771        C  0.85619850  0.09551722  0.21416400     0.05400
C772        C  0.87832158  0.12288956  0.22534240    -0.09200
C773        C  0.91613903  0.12887114  0.22843942     0.06200
C774        C  0.93227173  0.11113897  0.21966760    -0.13500
Br775      Br  0.95368924  0.13448734  0.18078117    -0.05600
Br776      Br  0.97329054  0.99993583  0.21207810     0.00000
Br777      Br  0.80233863  0.07915702  0.21093107     0.00500
Br778      Br  0.98457213  0.12116355  0.22329271    -0.03900
Br779      Br  0.00990983  0.10552525  0.16574769     0.00600
Br780      Br  0.89921292  0.00892523  0.22227953    -0.03200
Br781      Br  0.84151101  0.03829142  0.19122199    -0.04100
Br782      Br  0.94720860  0.15945886  0.24476507    -0.00100
C783        C  0.90444225  0.20971294  0.26567571     0.01300
C784        C  0.94220766  0.23327078  0.26007024     0.04100
C785        C  0.97371384  0.25100142  0.26978120    -0.11900
C786        C  0.96677419  0.24844372  0.28499933     0.23400
C787        C  0.92849086  0.23172499  0.29037182    -0.12500
C788        C  0.89712951  0.21307859  0.28059735     0.04800
C789        C  0.99952278  0.26122150  0.29527899     0.27300
C790        C  0.00902237  0.23367970  0.30052661    -0.13200
C791        C  0.04108548  0.24544691  0.30985060     0.05400
C792        C  0.06518114  0.28556137  0.31331546    -0.09200
C793        C  0.05384749  0.31268133  0.30872327     0.06200
C794        C  0.02120758  0.30043814  0.29963963    -0.13500
Br795      Br  0.91931282  0.23328274  0.31108250    -0.05600
Br796      Br  0.95025574  0.24475848  0.23934079     0.00000
Br797      Br  0.05038683  0.20549518  0.31770885     0.00500
Br798      Br  0.00608324  0.33721418  0.29295103    -0.03900
Br799      Br  0.84454797  0.19354650  0.28748538     0.00600
Br800      Br  0.02621017  0.27727207  0.26232404    -0.03200
Br801      Br  0.97850288  0.17975386  0.29442296    -0.04100
Br802      Br  0.08049375  0.36603148  0.31571240    -0.00100
C803        C  0.72095043  0.91679399  0.31164224     0.01300
C804        C  0.71482294  0.94817388  0.31477922     0.04100
C805        C  0.72792952  0.97952917  0.30491112    -0.11900
C806        C  0.74743535  0.97964839  0.29195113     0.23400
C807        C  0.75261130  0.94770974  0.28863342    -0.12500
C808        C  0.73880546  0.91601332  0.29837726     0.04800
C809        C  0.76486676  0.01461129  0.28237719     0.27300
C810        C  0.74551445  0.01594602  0.26974992    -0.13200
C811        C  0.76242724  0.04925728  0.26067756     0.05400
C812        C  0.79838485  0.08290999  0.26450808    -0.09200
C813        C  0.81803204  0.08030845  0.27728200     0.06200
C814        C  0.80126780  0.04632199  0.28597514    -0.13500
Br815      Br  0.77952646  0.94798432  0.27093875    -0.05600
Br816      Br  0.68797075  0.94783589  0.33249679     0.00000
Br817      Br  0.73723552  0.04505873  0.24226654     0.00500
Br818      Br  0.82814977  0.04229664  0.30306788    -0.03900
Br819      Br  0.74391833  0.87130565  0.29352828     0.00600
Br820      Br  0.71985486  0.02275398  0.30918409    -0.03200
Br821      Br  0.69575447  0.97118344  0.26486501    -0.04100
Br822      Br  0.86782801  0.12126958  0.28396927    -0.00100
C823        C  0.95554390  0.90769315  0.17914642     0.01300
C824        C  0.96651796  0.87903136  0.17652284     0.04100
C825        C  0.95161887  0.84507656  0.18520847    -0.11900
C826        C  0.92668508  0.83960110  0.19701058     0.23400
C827        C  0.91555564  0.86746264  0.19986367    -0.12500
C828        C  0.92848436  0.90029410  0.19069278     0.04800
C829        C  0.91146297  0.80394939  0.20623069     0.27300
C830        C  0.87353023  0.77265349  0.20400816    -0.13200
C831        C  0.85910010  0.73868180  0.21260141     0.05400
C832        C  0.88289915  0.73561726  0.22358252    -0.09200
C833        C  0.92133867  0.76709895  0.22551433     0.06200
C834        C  0.93520407  0.80120599  0.21702982    -0.13500
Br835      Br  0.88208423  0.86008862  0.21647630    -0.05600
Br836      Br  0.00156102  0.88432843  0.16115100     0.00000
Br837      Br  0.80538018  0.69835602  0.20971527     0.00500
Br838      Br  0.98701461  0.84474109  0.22016441    -0.03900
Br839      Br  0.90264570  0.92982070  0.19290935     0.00600
Br840      Br  0.96550939  0.80554535  0.18119276    -0.03200
Br841      Br  0.84091094  0.77687875  0.18930240    -0.04100
Br842      Br  0.95691500  0.76376865  0.23894406    -0.00100
C843        C  0.09628918  0.76888205  0.30642516     0.01300
C844        C  0.09032265  0.78993239  0.29527504     0.04100
C845        C  0.05673395  0.77169990  0.28651836    -0.11900
C846        C  0.02898792  0.73213345  0.28878362     0.23400
C847        C  0.03593632  0.71038059  0.29936112    -0.12500
C848        C  0.06983801  0.72864431  0.30805647     0.04800
C849        C  0.99178295  0.71446554  0.28049637     0.27300
C850        C  0.96044894  0.71747295  0.28609935    -0.13200
C851        C  0.92682493  0.70572130  0.27755341     0.05400
C852        C  0.92315923  0.68875197  0.26344803    -0.09200
C853        C  0.95519863  0.68589825  0.25797179     0.06200
C854        C  0.98914774  0.69866171  0.26645274    -0.13500
Br855      Br  0.99834443  0.65598723  0.30217024    -0.05600
Br856      Br  0.12897642  0.84341435  0.29157327     0.00000
Br857      Br  0.88776245  0.71535021  0.28555895     0.00500
Br858      Br  0.03322207  0.69627138  0.25868732    -0.03900
Br859      Br  0.07994719  0.69872954  0.32222909     0.00600
Br860      Br  0.04810065  0.80111382  0.27159289    -0.03200
Br861      Br  0.96447890  0.73882771  0.30557825    -0.04100
Br862      Br  0.95595388  0.66979309  0.23813605    -0.00100
C863        C  0.72986430  0.77632970  0.31526312     0.01300
C864        C  0.77032556  0.79558968  0.31213438     0.04100
C865        C  0.78571237  0.77709600  0.30340669    -0.11900
C866        C  0.76083398  0.74047973  0.29700197     0.23400
C867        C  0.72076668  0.72115953  0.30008670    -0.12500
C868        C  0.70553540  0.73819428  0.30963254     0.04800
C869        C  0.77655245  0.72343154  0.28632374     0.27300
C870        C  0.78699451  0.73945622  0.27217018    -0.13200
C871        C  0.80383590  0.72504550  0.26219654     0.05400
C872        C  0.80818246  0.69275645  0.26591754    -0.09200
C873        C  0.79472806  0.67476266  0.27979492     0.06200
C874        C  0.78079865  0.69131516  0.29018388    -0.13500
Br875      Br  0.68646376  0.67168753  0.29078841    -0.05600
Br876      Br  0.80537546  0.84818983  0.31886096     0.00000
Br877      Br  0.81895880  0.74924545  0.24329244     0.00500
Br878      Br  0.76896209  0.67113787  0.30994075    -0.03900
Br879      Br  0.65169593  0.70735317  0.31555350     0.00600
Br880      Br  0.84109425  0.80214424  0.29991012    -0.03200
Br881      Br  0.77762242  0.78110657  0.26641592    -0.04100
Br882      Br  0.79717558  0.62874569  0.28513361    -0.00100
C883        C  0.25178847  0.11491928  0.22456582     0.01300
C884        C  0.24607689  0.13200647  0.21176662     0.04100
C885        C  0.21306329  0.11118535  0.20280280    -0.11900
C886        C  0.18248519  0.07482111  0.20726664     0.23400
C887        C  0.18541083  0.05888781  0.22062005    -0.12500
C888        C  0.21971674  0.07812696  0.22917926     0.04800
C889        C  0.14533122  0.05578168  0.19878650     0.27300
C890        C  0.11879136  0.06907004  0.20049817    -0.13200
C891        C  0.08444730  0.05285945  0.19205005     0.05400
C892        C  0.07530035  0.02201946  0.18183027    -0.09200
C893        C  0.10128253  0.00717120  0.18112698     0.06200
C894        C  0.13636087  0.02454903  0.18921526    -0.13500
Br895      Br  0.14095229  0.01069907  0.22727321    -0.05600
Br896      Br  0.27820899  0.18663616  0.20770837     0.00000
Br897      Br  0.05294299  0.07642467  0.19457178     0.00500
Br898      Br  0.17244316  0.00545493  0.18744261    -0.03900
Br899      Br  0.21860574  0.05224536  0.24721879     0.00600
Br900      Br  0.20864288  0.13316469  0.18446911    -0.03200
Br901      Br  0.13022303  0.11019955  0.21461987    -0.04100
Br902      Br  0.08831846  0.96076325  0.17040022    -0.00100
C903        C  0.31503267  0.08667895  0.26058174     0.01300
C904        C  0.32618938  0.08879369  0.27537650     0.04100
C905        C  0.31191442  0.05442588  0.28361799    -0.11900
C906        C  0.28833257  0.01807667  0.27681846     0.23400
C907        C  0.28261256  0.01586213  0.26153225    -0.12500
C908        C  0.29763617  0.05036062  0.25330293     0.04800
C909        C  0.26889484  0.98256077  0.28589394     0.27300
C910        C  0.28639179  0.95977052  0.28809073    -0.13200
C911        C  0.26910394  0.92741889  0.29754969     0.05400
C912        C  0.23391154  0.91789724  0.30507447    -0.09200
C913        C  0.21657701  0.94145413  0.30268327     0.06200
C914        C  0.23391534  0.97320899  0.29297502    -0.13500
Br915      Br  0.25282485  0.96582929  0.25205554    -0.05600
Br916      Br  0.36391179  0.13783351  0.28397739     0.00000
Br917      Br  0.29638910  0.89879602  0.30041995     0.00500
Br918      Br  0.21013321  0.00480300  0.28931957    -0.03900
Br919      Br  0.29641142  0.04797842  0.23211089     0.00600
Br920      Br  0.32367996  0.05691377  0.30427707    -0.03200
Br921      Br  0.33496050  0.97405894  0.27830161    -0.04100
Br922      Br  0.16909069  0.93187354  0.31234660    -0.00100
C923        C  0.30025337  0.20111363  0.26249257     0.01300
C924        C  0.28291750  0.18633305  0.27640312     0.04100
C925        C  0.26691297  0.20510343  0.28463133    -0.11900
C926        C  0.26692578  0.23813872  0.27903177     0.23400
C927        C  0.28333917  0.25279356  0.26519297    -0.12500
C928        C  0.29988062  0.23451990  0.25692625     0.04800
C929        C  0.24858376  0.25658930  0.28769389     0.27300
C930        C  0.20792115  0.24035730  0.28743266    -0.13200
C931        C  0.18992768  0.25443468  0.29706621     0.05400
C932        C  0.21258994  0.28579582  0.30663359    -0.09200
C933        C  0.25355658  0.30410687  0.30597125     0.06200
C934        C  0.27141748  0.28879126  0.29685041    -0.13500
Br935      Br  0.28226376  0.29771309  0.25752312    -0.05600
Br936      Br  0.28036585  0.14063966  0.28483455     0.00000
Br937      Br  0.13439568  0.23184646  0.29660713     0.00500
Br938      Br  0.32710243  0.31094098  0.29721973    -0.03900
Br939      Br  0.31914641  0.25458228  0.23754495     0.00600
Br940      Br  0.24474672  0.18577298  0.30382571    -0.03200
Br941      Br  0.17707799  0.19868646  0.27383973    -0.04100
Br942      Br  0.28546863  0.34997155  0.31762561    -0.00100
C943        C  0.48537186  0.94023362  0.56139779     0.01300
C944        C  0.45164486  0.90919267  0.56805526     0.04100
C945        C  0.42895455  0.87380348  0.56056988    -0.11900
C946        C  0.44298104  0.86564908  0.54768395     0.23400
C947        C  0.47989089  0.89307196  0.54237658    -0.12500
C948        C  0.50100880  0.93026537  0.54903614     0.04800
C949        C  0.41958457  0.82707257  0.54038566     0.27300
C950        C  0.41768819  0.79373482  0.54655613    -0.13200
C951        C  0.38914268  0.75646531  0.54179006     0.05400
C952        C  0.37074473  0.75184510  0.52794081    -0.09200
C953        C  0.36939158  0.78531594  0.52286842     0.06200
C954        C  0.39350393  0.82248616  0.52916225    -0.13500
Br955      Br  0.50177378  0.87856104  0.52627139    -0.05600
Br956      Br  0.44192825  0.90805267  0.58874480     0.00000
Br957      Br  0.36409140  0.72008160  0.55767432     0.00500
Br958      Br  0.38898736  0.86705058  0.52336373    -0.03900
Br959      Br  0.55273026  0.96488050  0.54163830     0.00600
Br960      Br  0.37879017  0.83549764  0.56833288    -0.03200
Br961      Br  0.45144984  0.79884914  0.56266960    -0.04100
Br962      Br  0.32830553  0.78069871  0.51049314    -0.00100
C963        C  0.46479595  0.53474258  0.56283361     0.01300
C964        C  0.43337944  0.53648113  0.56973897     0.04100
C965        C  0.41440876  0.55379296  0.56239546    -0.11900
C966        C  0.42844588  0.57249480  0.54881255     0.23400
C967        C  0.46304011  0.57632004  0.54314825    -0.12500
C968        C  0.48241866  0.56001708  0.55065288     0.04800
C969        C  0.40942740  0.59181168  0.54113764     0.27300
C970        C  0.38084926  0.57137266  0.53052120    -0.13200
C971        C  0.36458541  0.59020240  0.52245914     0.05400
C972        C  0.37669172  0.63040367  0.52492309    -0.09200
C973        C  0.40628125  0.65058385  0.53562547     0.06200
C974        C  0.42210654  0.63137197  0.54368053    -0.13500
Br975      Br  0.48456099  0.60516314  0.52520724    -0.05600
Br976      Br  0.42298329  0.52675844  0.59050081     0.00000
Br977      Br  0.32497902  0.55835810  0.50865682     0.00500
Br978      Br  0.46264487  0.65948886  0.55801742    -0.03900
Br979      Br  0.53655081  0.58079018  0.54616024     0.00600
Br980      Br  0.37004776  0.55368187  0.57116316    -0.03200
Br981      Br  0.36429943  0.51693630  0.52715787    -0.04100
Br982      Br  0.43036569  0.70587652  0.53825962    -0.00100
C983        C  0.26497883  0.63546276  0.53300904     0.01300
C984        C  0.25419548  0.60144098  0.54132802     0.04100
C985        C  0.21853101  0.58352379  0.54908885    -0.11900
C986        C  0.19278717  0.59827852  0.54770983     0.23400
C987        C  0.20633762  0.63481472  0.54087819    -0.12500
C988        C  0.24424402  0.65503873  0.53538038     0.04800
C989        C  0.15217023  0.57632937  0.55346172     0.27300
C990        C  0.12450579  0.54114951  0.54683119    -0.13200
C991        C  0.08539408  0.52200861  0.55162083     0.05400
C992        C  0.07207210  0.54031440  0.56183163    -0.09200
C993        C  0.09998300  0.57875439  0.56649850     0.06200
C994        C  0.13982938  0.59305982  0.56427438    -0.13500
Br995      Br  0.17346648  0.65728778  0.53808891    -0.05600
Br996      Br  0.28891407  0.58113331  0.54320756     0.00000
Br997      Br  0.05150301  0.47107704  0.54354133     0.00500
Br998      Br  0.17744136  0.63682650  0.57575528    -0.03900
Br999      Br  0.27230477  0.71079225  0.53717793     0.00600
Br1000     Br  0.20491144  0.53918746  0.56156959    -0.03200
Br1001     Br  0.14031625  0.51930911  0.53103061    -0.04100
Br1002     Br  0.08690220  0.61893749  0.56996723    -0.00100
C1003       C  0.54840376  0.07345521  0.43988982     0.01300
C1004       C  0.52873059  0.08605289  0.44966569     0.04100
C1005       C  0.54807194  0.12417460  0.45561314    -0.11900
C1006       C  0.58806608  0.14925320  0.45315182     0.23400
C1007       C  0.60674221  0.13858917  0.44253935    -0.12500
C1008       C  0.58584344  0.10294181  0.43489985     0.04800
C1009       C  0.60942508  0.18857449  0.46035759     0.27300
C1010       C  0.61157698  0.22126417  0.45346635    -0.13200
C1011       C  0.63367821  0.25877607  0.45975827     0.05400
C1012       C  0.64638790  0.26298015  0.47473651    -0.09200
C1013       C  0.65020401  0.23126245  0.48020883     0.06200
C1014       C  0.63185087  0.19447145  0.47304457    -0.13500
Br1015     Br  0.66037267  0.17458401  0.43755534    -0.05600
Br1016     Br  0.47430976  0.05397726  0.45435938     0.00000
Br1017     Br  0.65614909  0.30029473  0.44544340     0.00500
Br1018     Br  0.63806751  0.15206317  0.48029094    -0.03900
Br1019     Br  0.60452253  0.10201009  0.41542626     0.00600
Br1020     Br  0.51844344  0.14336306  0.46574244    -0.03200
Br1021     Br  0.58614098  0.21479804  0.43473894    -0.04100
Br1022     Br  0.68329935  0.23783974  0.49660786    -0.00100
C1023       C  0.46661080  0.92396860  0.44951744     0.01300
C1024       C  0.43744803  0.88809849  0.44333229     0.04100
C1025       C  0.42494266  0.85269580  0.45083940    -0.11900
C1026       C  0.43101523  0.85291159  0.46608507     0.23400
C1027       C  0.45522270  0.88918599  0.47293629    -0.12500
C1028       C  0.47698088  0.92307643  0.46442852     0.04800
C1029       C  0.41145185  0.81568016  0.47484477     0.27300
C1030       C  0.37081028  0.79111061  0.47440767    -0.13200
C1031       C  0.35321444  0.75450877  0.48146125     0.05400
C1032       C  0.37325866  0.74707895  0.49287171    -0.09200
C1033       C  0.41411170  0.77338512  0.49383310     0.06200
C1034       C  0.43316685  0.80437166  0.48370748    -0.13500
Br1035     Br  0.45780485  0.89349726  0.49401109    -0.05600
Br1036     Br  0.40814469  0.88579464  0.42611999     0.00000
Br1037     Br  0.30267031  0.71660005  0.47436215     0.00500
Br1038     Br  0.48908322  0.83020063  0.48152497    -0.03900
Br1039     Br  0.52381105  0.96419649  0.47333905     0.00600
Br1040     Br  0.40127306  0.80434217  0.43988199    -0.03200
Br1041     Br  0.33823154  0.80858303  0.46526022    -0.04100
Br1042     Br  0.44582960  0.76929934  0.50874301    -0.00100
C1043       C  0.55986955  0.96579859  0.41329549     0.01300
C1044       C  0.56231776  0.93371323  0.41867008     0.04100
C1045       C  0.57703047  0.91516505  0.40964791    -0.11900
C1046       C  0.58923252  0.92867360  0.39525822     0.23400
C1047       C  0.58750591  0.96112121  0.38997035    -0.12500
C1048       C  0.57356479  0.98014425  0.39904530     0.04800
C1049       C  0.60519451  0.90981311  0.38568827     0.27300
C1050       C  0.64551964  0.92533454  0.38498208    -0.13200
C1051       C  0.66156139  0.91003305  0.37501557     0.05400
C1052       C  0.63686682  0.87772191  0.36581633    -0.09200
C1053       C  0.59589329  0.86288776  0.36647746     0.06200
C1054       C  0.58044314  0.87888582  0.37645034    -0.13500
Br1055     Br  0.60268213  0.97825165  0.36997461    -0.05600
Br1056     Br  0.54674093  0.91589393  0.43850364     0.00000
Br1057     Br  0.71780503  0.93676483  0.37379724     0.00500
Br1058     Br  0.52501006  0.85912299  0.37745436    -0.03900
Br1059     Br  0.57041005  0.02380477  0.39128585     0.00600
Br1060     Br  0.57991885  0.87084357  0.41679757    -0.03200
Br1061     Br  0.67873590  0.96864634  0.39767407    -0.04100
Br1062     Br  0.55925797  0.82142329  0.35382938    -0.00100
C1063       C  0.27848106  0.88948398  0.36034902     0.01300
C1064       C  0.31152189  0.92361339  0.35529779     0.04100
C1065       C  0.34491790  0.94261265  0.36417991    -0.11900
C1066       C  0.34560106  0.92683341  0.37795427     0.23400
C1067       C  0.31183082  0.89376948  0.38326954    -0.12500
C1068       C  0.27794596  0.87602338  0.37467323     0.04800
C1069       C  0.38163445  0.94448696  0.38691478     0.27300
C1070       C  0.41131668  0.93604648  0.38372255    -0.13200
C1071       C  0.44367867  0.94921911  0.39313009     0.05400
C1072       C  0.44643153  0.97073374  0.40602012    -0.09200
C1073       C  0.41534622  0.97751009  0.40933229     0.06200
C1074       C  0.38432519  0.96625018  0.39948483    -0.13500
Br1075     Br  0.31231092  0.87200899  0.40216785    -0.05600
Br1076     Br  0.31026432  0.94531151  0.33654882     0.00000
Br1077     Br  0.48235957  0.93554447  0.38812987     0.00500
Br1078     Br  0.34457349  0.97974392  0.40333510    -0.03900
Br1079     Br  0.23048958  0.83406441  0.38269123     0.00600
Br1080     Br  0.38969953  0.99018328  0.35757857    -0.03200
Br1081     Br  0.40685826  0.90544612  0.36648222    -0.04100
Br1082     Br  0.41069141  0.99600396  0.42832589    -0.00100
C1083       C  0.51971301  0.45599614  0.44439493     0.01300
C1084       C  0.51040472  0.43997108  0.45876636     0.04100
C1085       C  0.53222602  0.42483508  0.46531751    -0.11900
C1086       C  0.56134537  0.42263316  0.45731043     0.23400
C1087       C  0.56688351  0.43303520  0.44244649    -0.12500
C1088       C  0.54470731  0.44743992  0.43579855     0.04800
C1089       C  0.58442996  0.40686920  0.46422298     0.27300
C1090       C  0.61696576  0.43125237  0.47279255    -0.13200
C1091       C  0.63842828  0.41623512  0.47967921     0.05400
C1092       C  0.62828323  0.37658169  0.47771329    -0.09200
C1093       C  0.59652750  0.35299448  0.46831713     0.06200
C1094       C  0.57429863  0.36782575  0.46192912    -0.13500
Br1095     Br  0.60555201  0.42793355  0.43124860    -0.05600
Br1096     Br  0.46249472  0.42813807  0.46827547     0.02100
Br1097     Br  0.68257963  0.45171154  0.49114510     0.00500
Br1098     Br  0.52911228  0.33453881  0.45013235    -0.03900
Br1099     Br  0.54650819  0.45096957  0.41460464     0.00600
Br1100     Br  0.52171588  0.40594787  0.48524996    -0.03200
Br1101     Br  0.63227169  0.48574937  0.47473248    -0.04100
Br1102     Br  0.58073033  0.29959661  0.46441146    -0.00100
C1103       C  0.45178825  0.54099070  0.44741367     0.01300
C1104       C  0.45912978  0.57895871  0.44322532     0.04100
C1105       C  0.44210721  0.59750931  0.45107276    -0.11900
C1106       C  0.41748553  0.57889959  0.46303789     0.23400
C1107       C  0.40821718  0.54086216  0.46678258    -0.12500
C1108       C  0.42414497  0.52160610  0.45879483     0.04800
C1109       C  0.40191771  0.59968901  0.47193869     0.27300
C1110       C  0.42491294  0.62561369  0.48296652    -0.13200
C1111       C  0.41038402  0.64501818  0.49162236     0.05400
C1112       C  0.37094347  0.63595338  0.49047745    -0.09200
C1113       C  0.34877275  0.61118904  0.47857159     0.06200
C1114       C  0.36461301  0.59392196  0.46929380    -0.13500
Br1115     Br  0.37346557  0.51527753  0.48307962    -0.05600
Br1116     Br  0.49141972  0.60770399  0.42686227     0.00000
Br1117     Br  0.44761382  0.68728310  0.50331801     0.00500
Br1118     Br  0.33527260  0.56156682  0.45286940    -0.03900
Br1119     Br  0.40319708  0.46698525  0.46261299     0.00600
Br1120     Br  0.45258150  0.64921894  0.44568252    -0.03200
Br1121     Br  0.47700193  0.63461633  0.48601794    -0.04100
Br1122     Br  0.29575051  0.59714244  0.47485060    -0.00100
C1123       C  0.42231813  0.45671502  0.40904063     0.01300
C1124       C  0.42201921  0.47168881  0.39488091     0.04100
C1125       C  0.39180414  0.44933019  0.38498645    -0.11900
C1126       C  0.35930429  0.41446716  0.38958926     0.23400
C1127       C  0.35779904  0.40043719  0.40383239    -0.12500
C1128       C  0.38923790  0.42099732  0.41347838     0.04800
C1129       C  0.32427642  0.39641779  0.38023458     0.27300
C1130       C  0.30104187  0.41397113  0.37959692    -0.13200
C1131       C  0.26896799  0.39891580  0.37016745     0.05400
C1132       C  0.25926429  0.36557772  0.36158883    -0.09200
C1133       C  0.28143760  0.34675881  0.36278848     0.06200
C1134       C  0.31453139  0.36278858  0.37186718    -0.13500
Br1135     Br  0.31157756  0.35361536  0.41021926    -0.05600
Br1136     Br  0.45936726  0.52368411  0.38866766     0.00000
Br1137     Br  0.23705645  0.42285267  0.36985895     0.00500
Br1138     Br  0.34697420  0.33934444  0.37272430    -0.03900
Br1139     Br  0.38372424  0.40123905  0.43323884     0.00600
Br1140     Br  0.39386400  0.46672836  0.36498301    -0.03200
Br1141     Br  0.31315134  0.45870948  0.39181445    -0.04100
Br1142     Br  0.26698572  0.29935138  0.35202105    -0.00100
C1143       C  0.54907902  0.57038384  0.41286054     0.01300
C1144       C  0.55568292  0.56705278  0.39787000     0.04100
C1145       C  0.57704354  0.60087899  0.38943442    -0.11900
C1146       C  0.59460401  0.63773707  0.39627840     0.23400
C1147       C  0.59336170  0.64049252  0.41165921    -0.12500
C1148       C  0.57136405  0.60657622  0.42001231     0.04800
C1149       C  0.61236153  0.67340646  0.38721064     0.27300
C1150       C  0.65068248  0.68931402  0.38197275    -0.13200
C1151       C  0.66605367  0.72141680  0.37236329     0.05400
C1152       C  0.64341271  0.73839886  0.36838526    -0.09200
C1153       C  0.60560027  0.72327261  0.37420992     0.06200
C1154       C  0.58990116  0.69043729  0.38336675    -0.13500
Br1155     Br  0.62052394  0.69079766  0.42112516    -0.05600
Br1156     Br  0.53965884  0.51664928  0.38926761     0.00000
Br1157     Br  0.71698960  0.74007787  0.36394206     0.00500
Br1158     Br  0.53712291  0.66803983  0.39044986    -0.03900
Br1159     Br  0.57289216  0.60945896  0.44120570     0.00600
Br1160     Br  0.58106280  0.59690811  0.36846175    -0.03200
Br1161     Br  0.68159955  0.66648977  0.38783066    -0.04100
Br1162     Br  0.57549566  0.74822185  0.37028678    -0.00100
C1163       C  0.74944638  0.37926319  0.47574088     0.01300
C1164       C  0.75624808  0.40757398  0.46475843     0.04100
C1165       C  0.79251703  0.42753271  0.45745643    -0.11900
C1166       C  0.82212822  0.41898476  0.46062534     0.23400
C1167       C  0.81457439  0.38882431  0.47050955    -0.12500
C1168       C  0.77839269  0.36862125  0.47778842     0.04800
C1169       C  0.86095696  0.44089288  0.45327310     0.27300
C1170       C  0.86672853  0.42952313  0.43931516    -0.13200
C1171       C  0.90345291  0.44994761  0.43248624     0.05400
C1172       C  0.93643888  0.47873434  0.44026525    -0.09200
C1173       C  0.92858665  0.49440544  0.45307622     0.06200
C1174       C  0.89148483  0.47457788  0.45979162    -0.13500
Br1175     Br  0.85421095  0.37501202  0.47382410    -0.05600
Br1176     Br  0.71782273  0.42187850  0.45992272     0.00000
Br1177     Br  0.90535166  0.44395783  0.41164875     0.00500
Br1178     Br  0.88187847  0.49388489  0.47783506    -0.03900
Br1179     Br  0.76812838  0.32394761  0.48931995     0.00600
Br1180     Br  0.80241030  0.46756064  0.44321206    -0.03200
Br1181     Br  0.82398969  0.38585696  0.42950613    -0.04100
Br1182     Br  0.96397112  0.54700973  0.45961002    -0.00100
C1183       C  0.24902455  0.62857881  0.49988138     0.01300
C1184       C  0.22970698  0.64880838  0.49533362     0.04100
C1185       C  0.19605743  0.63037765  0.48644851    -0.11900
C1186       C  0.18097216  0.59138719  0.48197052     0.23400
C1187       C  0.19741092  0.56995267  0.48769626    -0.12500
C1188       C  0.22908097  0.58773752  0.49748066     0.04800
C1189       C  0.14747942  0.57286557  0.47152030     0.27300
C1190       C  0.11057330  0.54366667  0.47627404    -0.13200
C1191       C  0.08001379  0.52412455  0.46614255     0.05400
C1192       C  0.08334530  0.53854918  0.45158225    -0.09200
C1193       C  0.12059084  0.56953330  0.44707803     0.06200
C1194       C  0.15271109  0.58433492  0.45672195    -0.13500
Br1195     Br  0.17795186  0.51659570  0.48150355    -0.05600
Br1196     Br  0.24439890  0.69955037  0.50262812     0.00000
Br1197     Br  0.03665341  0.47447072  0.47219710     0.00500
Br1198     Br  0.20456733  0.62071613  0.44973117    -0.03900
Br1199     Br  0.24091393  0.55439152  0.50867182     0.00600
Br1200     Br  0.17020051  0.65844412  0.48032251    -0.03200
Br1201     Br  0.10132364  0.53113846  0.49685862    -0.04100
Br1202     Br  0.12991735  0.59538319  0.42840275    -0.00100
C1203       C  0.05114313  0.57296770  0.40904933     0.01300
C1204       C  0.05950362  0.60954454  0.41493130     0.04100
C1205       C  0.08040055  0.64374932  0.40657821    -0.11900
C1206       C  0.09161929  0.64149091  0.39212236     0.23400
C1207       C  0.08428858  0.60540159  0.38635952    -0.12500
C1208       C  0.06520335  0.57147220  0.39495785     0.04800
C1209       C  0.10957308  0.67664596  0.38268254     0.27300
C1210       C  0.08585323  0.68932816  0.37606233    -0.13200
C1211       C  0.10208815  0.72118431  0.36637586     0.05400
C1212       C  0.14209126  0.73959554  0.36276405    -0.09200
C1213       C  0.16578548  0.72647755  0.36937319     0.06200
C1214       C  0.14968706  0.69591140  0.37966047    -0.13500
Br1215     Br  0.09979193  0.60247634  0.36648444    -0.05600
Br1216     Br  0.04567807  0.61378439  0.43490358     0.00000
Br1217     Br  0.06828568  0.73743579  0.35749579     0.00500
Br1218     Br  0.18240723  0.68022199  0.38974348    -0.03900
Br1219     Br  0.05914653  0.52354102  0.38724528     0.00600
Br1220     Br  0.09454864  0.69402962  0.41493700    -0.03200
Br1221     Br  0.03061144  0.66196078  0.37995323    -0.04100
Br1222     Br  0.22037739  0.74988077  0.36459392    -0.00100
C1223       C  0.03099413  0.44542880  0.41395126     0.01300
C1224       C  0.01360291  0.42884505  0.40025256     0.04100
C1225       C  0.02810185  0.40945931  0.39155101    -0.11900
C1226       C  0.06004407  0.40636766  0.39637938     0.23400
C1227       C  0.07595042  0.42054700  0.41034642    -0.12500
C1228       C  0.06152380  0.43994340  0.41910918     0.04800
C1229       C  0.07921902  0.39178501  0.38614196     0.27300
C1230       C  0.06536875  0.35162663  0.38461550    -0.13200
C1231       C  0.08248891  0.33797562  0.37433208     0.05400
C1232       C  0.11487942  0.36478093  0.36569158    -0.09200
C1233       C  0.12776292  0.40541508  0.36708138     0.06200
C1234       C  0.11010515  0.41851288  0.37731714    -0.13500
Br1235     Br  0.11846615  0.41426433  0.41717205    -0.05600
Br1236     Br  0.97241222  0.43535431  0.39234576     0.00000
Br1237     Br  0.05791282  0.28211725  0.37147428     0.00500
Br1238     Br  0.12763986  0.47362429  0.37922856    -0.03900
Br1239     Br  0.08367571  0.45823661  0.43824962     0.00600
Br1240     Br  0.00568339  0.38879832  0.37251974    -0.03200
Br1241     Br  0.02207645  0.31538099  0.39656428    -0.04100
Br1242     Br  0.16867126  0.44476240  0.35500602    -0.00100
C1243       C  0.70790836  0.28726006  0.19574029     0.01300
C1244       C  0.74628388  0.29510490  0.19269778     0.04100
C1245       C  0.76169355  0.27450353  0.19990873    -0.11900
C1246       C  0.74162498  0.24970278  0.21172329     0.23400
C1247       C  0.70558599  0.24507237  0.21607585    -0.12500
C1248       C  0.68811770  0.26255330  0.20790821     0.04800
C1249       C  0.75898933  0.22890015  0.21947913     0.27300
C1250       C  0.74418953  0.18867251  0.21727653    -0.13200
C1251       C  0.76283792  0.16981470  0.22369370     0.05400
C1252       C  0.79858684  0.19161889  0.23139742    -0.09200
C1253       C  0.81609478  0.23313973  0.23086694     0.06200
C1254       C  0.79396838  0.25049425  0.22717429    -0.13500
Br1255     Br  0.68003710  0.21404002  0.23322780    -0.05600
Br1256     Br  0.78080987  0.33682354  0.17998723     0.00000
Br1257     Br  0.74070334  0.11514079  0.21996485     0.00500
Br1258     Br  0.81345879  0.30496915  0.23163002    -0.03900
Br1259     Br  0.63582407  0.24873886  0.21314857     0.00600
Br1260     Br  0.81048173  0.27978628  0.19332350    -0.03200
Br1261     Br  0.69932909  0.15990366  0.20477732    -0.04100
Br1262     Br  0.87185899  0.26724747  0.22930480    -0.00100
C1263       C  0.70668941  0.40356407  0.19539764     0.01300
C1264       C  0.69998007  0.43483812  0.19206590     0.04100
C1265       C  0.72036070  0.47079017  0.19948092    -0.11900
C1266       C  0.74431200  0.47501210  0.21148991     0.23400
C1267       C  0.74789164  0.44309913  0.21603529    -0.12500
C1268       C  0.73028310  0.40800419  0.20788120     0.04800
C1269       C  0.76649981  0.51350017  0.21902966     0.27300
C1270       C  0.80647664  0.53753058  0.21630305    -0.13200
C1271       C  0.82716893  0.57496407  0.22274730     0.05400
C1272       C  0.80767070  0.58987630  0.23149717    -0.09200
C1273       C  0.76618236  0.56764534  0.23159464     0.06200
C1274       C  0.74680768  0.52826780  0.22727617    -0.13500
Br1275     Br  0.77801626  0.44834670  0.23342448    -0.05600
Br1276     Br  0.65986232  0.42866079  0.17871780     0.00000
Br1277     Br  0.88086597  0.60686566  0.21729234     0.00500
Br1278     Br  0.69224309  0.49531989  0.23172193    -0.03900
Br1279     Br  0.74278981  0.36883596  0.21364707     0.00600
Br1280     Br  0.71596829  0.51495611  0.19303225    -0.03200
Br1281     Br  0.83239897  0.51955387  0.20306307    -0.04100
Br1282     Br  0.73447747  0.59218046  0.23102981    -0.00100
C1283       C  0.40389548  0.20121987  0.22964170     0.01300
C1284       C  0.41132781  0.21895813  0.21557021     0.04100
C1285       C  0.44838451  0.23453946  0.20908613    -0.11900
C1286       C  0.47917522  0.23511897  0.21684046     0.23400
C1287       C  0.47364392  0.22249382  0.23145375    -0.12500
C1288       C  0.43703893  0.20822360  0.23812531     0.04800
C1289       C  0.51811408  0.25193012  0.20990105     0.27300
C1290       C  0.52604898  0.22921066  0.20022462    -0.13200
C1291       C  0.56142603  0.24601226  0.19245908     0.05400
C1292       C  0.58980901  0.28601909  0.19442051    -0.09200
C1293       C  0.58263186  0.30759254  0.20528029     0.06200
C1294       C  0.54660677  0.29086400  0.21263701    -0.13500
Br1295     Br  0.51652826  0.22470584  0.24227954    -0.05600
Br1296     Br  0.37583125  0.23202719  0.20647023     0.00000
Br1297     Br  0.57087404  0.21201656  0.18028969     0.00500
Br1298     Br  0.53537051  0.32156828  0.22624305    -0.03900
Br1299     Br  0.43523147  0.20453285  0.25928345     0.00600
Br1300     Br  0.45775681  0.25647310  0.18960132    -0.03200
Br1301     Br  0.48801747  0.17452468  0.19791867    -0.04100
Br1302     Br  0.62010598  0.36079050  0.20999732    -0.00100
C1303       C  0.86000377  0.11551415  0.11012624     0.01300
C1304       C  0.89469886  0.13773316  0.11868732     0.04100
C1305       C  0.91281872  0.11948793  0.12595406    -0.11900
C1306       C  0.89901570  0.07943859  0.12414258     0.23400
C1307       C  0.86524288  0.05712561  0.11580343    -0.12500
C1308       C  0.84397754  0.07410627  0.11014970     0.04800
C1309       C  0.91826261  0.06041480  0.13207791     0.27300
C1310       C  0.95475716  0.06659412  0.12751903    -0.13200
C1311       C  0.97490837  0.05233632  0.13593962     0.05400
C1312       C  0.95742459  0.02874592  0.14862766    -0.09200
C1313       C  0.91885688  0.01975899  0.15216653     0.06200
C1314       C  0.90067845  0.03736240  0.14455042    -0.13500
Br1315     Br  0.84714924  0.00228227  0.11268653    -0.05600
Br1316     Br  0.91834751  0.19337986  0.12175309     0.00000
Br1317     Br  0.02802817  0.06985640  0.13041384     0.00500
Br1318     Br  0.85158378  0.03068621  0.15140256    -0.03900
Br1319     Br  0.78981844  0.03806659  0.10685495     0.00600
Br1320     Br  0.95629927  0.14912642  0.13903260    -0.03200
Br1321     Br  0.97734803  0.09559790  0.10968341    -0.04100
Br1322     Br  0.88810563  0.98110679  0.16649004    -0.00100
C1323       C  0.78648999  0.18805786  0.11894043     0.01300
C1324       C  0.74822024  0.18044172  0.11615449     0.04100
C1325       C  0.73229125  0.19921610  0.12443383    -0.11900
C1326       C  0.75399489  0.22517053  0.13575688     0.23400
C1327       C  0.79150503  0.23209832  0.13891887    -0.12500
C1328       C  0.80762992  0.21347901  0.13069118     0.04800
C1329       C  0.73711057  0.24481259  0.14451816     0.27300
C1330       C  0.74483946  0.28231951  0.14069738    -0.13200
C1331       C  0.72998728  0.30160682  0.14929381     0.05400
C1332       C  0.70489234  0.28244792  0.16145249    -0.09200
C1333       C  0.69535469  0.24327266  0.16443885     0.06200
C1334       C  0.71307183  0.22567804  0.15654390    -0.13500
Br1335     Br  0.82105678  0.26807365  0.15442974    -0.05600
Br1336     Br  0.71576533  0.14227274  0.10182211     0.00000
Br1337     Br  0.74805205  0.35531272  0.14453151     0.00500
Br1338     Br  0.70449514  0.17481681  0.16207630    -0.03900
Br1339     Br  0.85931547  0.22482469  0.13560723     0.00600
Br1340     Br  0.68062171  0.18984462  0.12028185    -0.03200
Br1341     Br  0.77658781  0.30725422  0.12360512    -0.04100
Br1342     Br  0.65469593  0.21034123  0.17782325    -0.00100
C1343       C  0.87571737  0.22981524  0.07949787     0.01300
C1344       C  0.88367578  0.26738709  0.08379726     0.04100
C1345       C  0.90406814  0.29940653  0.07433845    -0.11900
C1346       C  0.91455486  0.29379144  0.06014160     0.23400
C1347       C  0.90711040  0.25645212  0.05582533    -0.12500
C1348       C  0.88850482  0.22470239  0.06556635     0.04800
C1349       C  0.92987584  0.32641574  0.04939140     0.27300
C1350       C  0.90439293  0.33758215  0.04324724    -0.13200
C1351       C  0.91879423  0.37049216  0.03409395     0.05400
C1352       C  0.95844085  0.39049817  0.02984726    -0.09200
C1353       C  0.98353501  0.37770296  0.03539132     0.06200
C1354       C  0.96956992  0.34686052  0.04559755    -0.13500
Br1355     Br  0.92048038  0.24844866  0.03623684    -0.05600
Br1356     Br  0.86626739  0.27548566  0.10247886     0.00000
Br1357     Br  0.88402156  0.38918381  0.02848872     0.00500
Br1358     Br  0.00487194  0.33289825  0.05461341    -0.03900
Br1359     Br  0.87684154  0.17343766  0.05903435     0.00600
Br1360     Br  0.91729781  0.35125053  0.08067434    -0.03200
Br1361     Br  0.84934135  0.30736676  0.04737199    -0.04100
Br1362     Br  0.03647412  0.40020310  0.02847019    -0.00100
C1363       C  0.87377111  0.72695448  0.10897785     0.01300
C1364       C  0.86502738  0.75590671  0.10405404     0.04100
C1365       C  0.87781459  0.79089057  0.11196973    -0.11900
C1366       C  0.90469434  0.80089498  0.12344901     0.23400
C1367       C  0.91884132  0.77567330  0.12687928    -0.12500
C1368       C  0.90388478  0.73916136  0.11972567     0.04800
C1369       C  0.92026222  0.83953631  0.13094931     0.27300
C1370       C  0.94994508  0.87348392  0.12432726    -0.13200
C1371       C  0.96119983  0.91063918  0.13032167     0.05400
C1372       C  0.94839685  0.91384114  0.14466094    -0.09200
C1373       C  0.91351255  0.88059996  0.14939461     0.06200
C1374       C  0.90074614  0.84349765  0.14310418    -0.13500
Br1375     Br  0.95949611  0.79185103  0.14128668    -0.05600
Br1376     Br  0.84635793  0.75526842  0.08455437     0.00000
Br1377     Br  0.98047945  0.95246198  0.11614248     0.00500
Br1378     Br  0.85513682  0.79813616  0.15056018    -0.03900
Br1379     Br  0.92854151  0.70883910  0.12406470     0.00600
Br1380     Br  0.85939464  0.82623898  0.10675851    -0.03200
Br1381     Br  0.97387607  0.86903234  0.10649514    -0.04100
Br1382     Br  0.87599837  0.88750980  0.16012638    -0.00100
C1383       C  0.81046436  0.58118523  0.11993800     0.01300
C1384       C  0.78385610  0.57625941  0.13127733     0.04100
C1385       C  0.76602577  0.54160199  0.13954780    -0.11900
C1386       C  0.77370462  0.51124653  0.13641524     0.23400
C1387       C  0.80041752  0.51614907  0.12529915    -0.12500
C1388       C  0.81946095  0.55130639  0.11735336     0.04800
C1389       C  0.75335723  0.47398024  0.14473913     0.27300
C1390       C  0.77227377  0.46703927  0.15632678    -0.13200
C1391       C  0.75306681  0.43190521  0.16430820     0.05400
C1392       C  0.71358997  0.40358236  0.16123678    -0.09200
C1393       C  0.69546716  0.41055735  0.14904785     0.06200
C1394       C  0.71532020  0.44546286  0.14093293    -0.13500
Br1395     Br  0.80978576  0.47388049  0.12065970    -0.05600
Br1396     Br  0.76779155  0.61446664  0.13462721     0.00000
Br1397     Br  0.78373924  0.42263636  0.17824211     0.00500
Br1398     Br  0.69034306  0.45491830  0.12452886    -0.03900
Br1399     Br  0.85905357  0.55855216  0.10344129     0.00600
Br1400     Br  0.72938345  0.53472532  0.15476541    -0.03200
Br1401     Br  0.82516646  0.50616363  0.16107226    -0.04100
Br1402     Br  0.64257294  0.37466609  0.14351705    -0.00100
C1403       C  0.59165898  0.53462017  0.03405825     0.01300
C1404       C  0.62906078  0.54199870  0.02968643     0.04100
C1405       C  0.65920673  0.55427050  0.04004666    -0.11900
C1406       C  0.65405827  0.56377482  0.05447882     0.23400
C1407       C  0.61740656  0.55781568  0.05882904    -0.12500
C1408       C  0.58587549  0.54158769  0.04890628     0.04800
C1409       C  0.68805422  0.58189758  0.06465139     0.27300
C1410       C  0.69144429  0.56044086  0.07630470    -0.13200
C1411       C  0.72504459  0.57722413  0.08522028     0.05400
C1412       C  0.75702151  0.61452272  0.08185598    -0.09200
C1413       C  0.75396474  0.63471552  0.06957397     0.06200
C1414       C  0.71889139  0.61975775  0.06174830    -0.13500
Br1415     Br  0.61062938  0.57259826  0.07836082    -0.05600
Br1416     Br  0.64111181  0.53871700  0.00933165     0.00000
Br1417     Br  0.72596580  0.54827472  0.10191825     0.00500
Br1418     Br  0.71344040  0.65085139  0.04661574    -0.03900
Br1419     Br  0.53468053  0.52688925  0.05626537     0.00600
Br1420     Br  0.70795914  0.55793233  0.03448287    -0.03200
Br1421     Br  0.65057713  0.50732820  0.07966310    -0.04100
Br1422     Br  0.79928201  0.67897488  0.06143502    -0.00100
C1423       C  0.95914277  0.53607045  0.02916674     0.01300
C1424       C  0.95010242  0.52447897  0.04393827     0.04100
C1425       C  0.93468510  0.54228353  0.05308231    -0.11900
C1426       C  0.92993077  0.57309801  0.04770020     0.23400
C1427       C  0.94068806  0.58583918  0.03309380    -0.12500
C1428       C  0.95438220  0.56679629  0.02376991     0.04800
C1429       C  0.91238200  0.59114880  0.05719898     0.27300
C1430       C  0.87363765  0.58185687  0.05495871    -0.13200
C1431       C  0.85695202  0.59914278  0.06371947     0.05400
C1432       C  0.87789182  0.62397267  0.07565015    -0.09200
C1433       C  0.91668682  0.63224934  0.07804652     0.06200
C1434       C  0.93412115  0.61716624  0.06852777    -0.13500
Br1435     Br  0.93682734  0.62962713  0.02591422    -0.05600
Br1436     Br  0.95801653  0.48348373  0.05151977     0.00000
Br1437     Br  0.80600535  0.58944545  0.05842134     0.00500
Br1438     Br  0.98804812  0.63181971  0.07102733    -0.03900
Br1439     Br  0.96703301  0.58307277  0.00360534     0.00600
Br1440     Br  0.91893317  0.52364279  0.07286360    -0.03200
Br1441     Br  0.84305385  0.54443709  0.03992923    -0.04100
Br1442     Br  0.94557265  0.66038649  0.09517480    -0.00100
C1443       C  0.26281310  0.11425833  0.11083492     0.01300
C1444       C  0.22994726  0.11322707  0.10398297     0.04100
C1445       C  0.19414691  0.09806861  0.11156322    -0.11900
C1446       C  0.18899617  0.07984845  0.12527167     0.23400
C1447       C  0.21908981  0.07479827  0.13091449    -0.12500
C1448       C  0.25479401  0.08993458  0.12335066     0.04800
C1449       C  0.15045817  0.06203132  0.13290853     0.27300
C1450       C  0.14125322  0.08467297  0.14216419    -0.13200
C1451       C  0.10500446  0.06775637  0.14948629     0.05400
C1452       C  0.07729991  0.02736399  0.14796308    -0.09200
C1453       C  0.08687750  0.00524034  0.13824400     0.06200
C1454       C  0.12293519  0.02243562  0.13079792    -0.13500
Br1455     Br  0.21076940  0.04598065  0.14891842    -0.05600
Br1456     Br  0.22845447  0.12085357  0.08307520     0.00000
Br1457     Br  0.09368005  0.10182114  0.16067847     0.00500
Br1458     Br  0.13533399  0.99165938  0.11766826    -0.03900
Br1459     Br  0.28799626  0.06937862  0.12844664     0.00600
Br1460     Br  0.15098511  0.10038618  0.10289588    -0.03200
Br1461     Br  0.17889054  0.13935461  0.14464454    -0.04100
Br1462     Br  0.05290676  0.95066792  0.13535210    -0.00100
C1463       C  0.41247035  0.19742396  0.11911460     0.01300
C1464       C  0.44437059  0.23380158  0.11442601     0.04100
C1465       C  0.48021082  0.25129638  0.12199065    -0.11900
C1466       C  0.48411172  0.23509027  0.13510453     0.23400
C1467       C  0.45241490  0.20051300  0.14040688    -0.12500
C1468       C  0.41754619  0.18095137  0.13225672     0.04800
C1469       C  0.52157983  0.25448042  0.14340199     0.27300
C1470       C  0.54909066  0.24244318  0.14140841    -0.13200
C1471       C  0.58424848  0.26024492  0.14942600     0.05400
C1472       C  0.59147696  0.28897747  0.16033486    -0.09200
C1473       C  0.56391727  0.30183576  0.16174578     0.06200
C1474       C  0.52967343  0.28504943  0.15320387    -0.13500
Br1475     Br  0.45750793  0.17983749  0.15894233    -0.05600
Br1476     Br  0.44014476  0.26321473  0.09855070     0.00000
Br1477     Br  0.62059849  0.24276801  0.14540781     0.00500
Br1478     Br  0.49376742  0.30452467  0.15447869    -0.03900
Br1479     Br  0.37961068  0.12988339  0.13892415     0.00600
Br1480     Br  0.52474664  0.29790133  0.11443788    -0.03200
Br1481     Br  0.53789808  0.20087835  0.12762318    -0.04100
Br1482     Br  0.57334443  0.34484200  0.17421954    -0.00100
C1483       C  0.36345527  0.22488121  0.07808113     0.01300
C1484       C  0.38006019  0.22655001  0.06413226     0.04100
C1485       C  0.39462484  0.26040421  0.05542823    -0.11900
C1486       C  0.39348421  0.29337419  0.06055510     0.23400
C1487       C  0.37654608  0.29196546  0.07430037    -0.12500
C1488       C  0.36166570  0.25805528  0.08306244     0.04800
C1489       C  0.41186544  0.32995086  0.05166594     0.27300
C1490       C  0.45257592  0.35469300  0.05194528    -0.13200
C1491       C  0.47062411  0.38698007  0.04240114     0.05400
C1492       C  0.44795363  0.39579254  0.03294409    -0.09200
C1493       C  0.40703307  0.37243153  0.03335381     0.06200
C1494       C  0.38914618  0.33895783  0.04234763    -0.13500
Br1495     Br  0.37504027  0.33729257  0.08127694    -0.05600
Br1496     Br  0.38321563  0.18297956  0.05647210     0.00000
Br1497     Br  0.52644855  0.41985570  0.04261773     0.00500
Br1498     Br  0.33362341  0.30449548  0.04154784    -0.03900
Br1499     Br  0.34335881  0.25962386  0.10260836     0.00600
Br1500     Br  0.41653548  0.26201722  0.03629710    -0.03200
Br1501     Br  0.48352022  0.34403114  0.06543510    -0.04100
Br1502     Br  0.37535881  0.38586446  0.02146762    -0.00100
C1503       C  0.75805439  0.12017738  0.07426292     0.01300
C1504       C  0.75579781  0.14372864  0.06286094     0.04100
C1505       C  0.72341002  0.12849631  0.05330321    -0.11900
C1506       C  0.69513255  0.08870588  0.05371304     0.23400
C1507       C  0.69808491  0.06468260  0.06434216    -0.12500
C1508       C  0.72708827  0.08088927  0.07523737     0.04800
C1509       C  0.66045760  0.07259466  0.04384710     0.27300
C1510       C  0.62403104  0.06405374  0.04961499    -0.13200
C1511       C  0.59055698  0.04614577  0.04074150     0.05400
C1512       C  0.59336347  0.03790827  0.02586344    -0.09200
C1513       C  0.63015792  0.04886207  0.01980230     0.06200
C1514       C  0.66347862  0.06527759  0.02885476    -0.13500
Br1515     Br  0.66133708  0.00927646  0.06415415    -0.05600
Br1516     Br  0.79605623  0.19654819  0.05924976     0.00000
Br1517     Br  0.54085132  0.03411077  0.04888055     0.00500
Br1518     Br  0.71308612  0.07673307  0.02084379    -0.03900
Br1519     Br  0.71831491  0.05056257  0.09275273     0.00600
Br1520     Br  0.71662421  0.16238915  0.03984663    -0.03200
Br1521     Br  0.62009250  0.07726867  0.06972481    -0.04100
Br1522     Br  0.63489439  0.04081244  0.99918229    -0.00100
C1523       C  0.44631132  0.02631227  0.03016593     0.01300
C1524       C  0.41275868  0.00135161  0.03855599     0.04100
C1525       C  0.39753169  0.01714175  0.04872204    -0.11900
C1526       C  0.41358059  0.05779422  0.04988534     0.23400
C1527       C  0.44592135  0.08279006  0.04121584    -0.12500
C1528       C  0.46316015  0.06733674  0.03181492     0.04800
C1529       C  0.39660054  0.07429406  0.06033290     0.27300
C1530       C  0.36220770  0.07445449  0.05671882    -0.13200
C1531       C  0.34614882  0.09008959  0.06660087     0.05400
C1532       C  0.36559009  0.10758030  0.07991356    -0.09200
C1533       C  0.39949785  0.10635442  0.08363092     0.06200
C1534       C  0.41473141  0.08954556  0.07393294    -0.13500
Br1535     Br  0.46642827  0.13848600  0.04226613    -0.05600
Br1536     Br  0.38535990  0.94536540  0.03580469     0.00000
Br1537     Br  0.29855383  0.08912519  0.06129367     0.00500
Br1538     Br  0.46053179  0.08711696  0.07925010    -0.03900
Br1539     Br  0.51143380  0.10327448  0.02219940     0.00600
Br1540     Br  0.35473335  0.98309060  0.06132043    -0.03200
Br1541     Br  0.33796697  0.05441007  0.03790439    -0.04100
Br1542     Br  0.42417330  0.12540815  0.10236479    -0.00100
C1543       C  0.42457333  0.71814234  0.80582535     0.01300
C1544       C  0.43238427  0.70374698  0.79260692     0.04100
C1545       C  0.46876154  0.72515465  0.78552521    -0.11900
C1546       C  0.49921592  0.75808786  0.79237705     0.23400
C1547       C  0.49164190  0.77286212  0.80523670    -0.12500
C1548       C  0.45378590  0.75535324  0.81095304     0.04800
C1549       C  0.53947896  0.77693100  0.78640132     0.27300
C1550       C  0.56223296  0.75903059  0.78820973    -0.13200
C1551       C  0.60174790  0.77885342  0.78410625     0.05400
C1552       C  0.61872430  0.81633712  0.77757310    -0.09200
C1553       C  0.59714842  0.83618209  0.77834387     0.06200
C1554       C  0.55699781  0.81530487  0.78104250    -0.13500
Br1555     Br  0.53365856  0.81601652  0.81565102    -0.05600
Br1556     Br  0.39703010  0.65296708  0.78463399     0.00000
Br1557     Br  0.63326724  0.75692839  0.79000548     0.00500
Br1558     Br  0.52621034  0.83998023  0.77775919    -0.03900
Br1559     Br  0.44303489  0.78513179  0.82498552     0.00600
Br1560     Br  0.47781317  0.70893807  0.76659355    -0.03200
Br1561     Br  0.53939817  0.70719314  0.79636561    -0.04100
Br1562     Br  0.62253031  0.89208437  0.78141449    -0.00100
C1563       C  0.31633127  0.59342524  0.80309310     0.01300
C1564       C  0.32646075  0.56469938  0.80647908     0.04100
C1565       C  0.30534489  0.52701045  0.80054661    -0.11900
C1566       C  0.27916168  0.51935298  0.78892901     0.23400
C1567       C  0.27454087  0.54998828  0.78340070    -0.12500
C1568       C  0.29130573  0.58625340  0.79085310     0.04800
C1569       C  0.25608166  0.47882415  0.78300637     0.27300
C1570       C  0.27530361  0.46111966  0.77633564    -0.13200
C1571       C  0.25624717  0.42039034  0.77477505     0.05400
C1572       C  0.21492797  0.39783437  0.77572252    -0.09200
C1573       C  0.19570313  0.41573864  0.78266693     0.06200
C1574       C  0.21624726  0.45572914  0.78640581    -0.13500
Br1575     Br  0.24402056  0.54139873  0.76586609    -0.05600
Br1576     Br  0.37122177  0.57664955  0.81818569     0.00000
Br1577     Br  0.28871935  0.39750184  0.77824045     0.00500
Br1578     Br  0.18969234  0.47851593  0.79656247    -0.03900
Br1579     Br  0.27561826  0.62291118  0.78481053     0.00600
Br1580     Br  0.31074145  0.48537266  0.80920754    -0.03200
Br1581     Br  0.32889893  0.49231693  0.77024452    -0.04100
Br1582     Br  0.14278332  0.38524388  0.78935448    -0.00100
C1583       C  0.30123024  0.70377201  0.80637385     0.01300
C1584       C  0.32147882  0.73682354  0.79708360     0.04100
C1585       C  0.30219646  0.75547481  0.79105713    -0.11900
C1586       C  0.26144709  0.73776896  0.79194916     0.23400
C1587       C  0.24046700  0.70179156  0.79926781    -0.12500
C1588       C  0.26017713  0.68640887  0.80722796     0.04800
C1589       C  0.24035771  0.75683576  0.78549884     0.27300
C1590       C  0.22010466  0.76906163  0.79475782    -0.13200
C1591       C  0.19490866  0.78079998  0.78881834     0.05400
C1592       C  0.19660905  0.79013682  0.77365218    -0.09200
C1593       C  0.21606628  0.77629090  0.76426166     0.06200
C1594       C  0.23675016  0.75886910  0.77018708    -0.13500
Br1595     Br  0.18427892  0.67310574  0.79810084    -0.05600
Br1596     Br  0.37581392  0.75849564  0.79269651     0.00000
Br1597     Br  0.15031277  0.76927899  0.80073025     0.00500
Br1598     Br  0.25930177  0.73647525  0.75733724    -0.03900
Br1599     Br  0.22938632  0.64065286  0.81873593     0.00600
Br1600     Br  0.33186542  0.80657008  0.78232210    -0.03200
Br1601     Br  0.22575896  0.76868628  0.81581766    -0.04100
Br1602     Br  0.21272797  0.77745411  0.74316568    -0.00100
C1603       C  0.04604292  0.07387513  0.86785244     0.01300
C1604       C  0.02437014  0.09163506  0.87213817     0.04100
C1605       C  0.04433942  0.13051610  0.87743622    -0.11900
C1606       C  0.08470124  0.14857309  0.88020239     0.23400
C1607       C  0.10235562  0.12524819  0.87949334    -0.12500
C1608       C  0.07903454  0.08528306  0.87653283     0.04800
C1609       C  0.10742488  0.18981011  0.88536997     0.27300
C1610       C  0.13203843  0.21912794  0.87558875    -0.13200
C1611       C  0.15633391  0.25770602  0.88050329     0.05400
C1612       C  0.15247606  0.26882031  0.89500919    -0.09200
C1613       C  0.13111498  0.23791822  0.90521225     0.06200
C1614       C  0.10822704  0.19897998  0.90032431    -0.13500
Br1615     Br  0.15479075  0.14448260  0.88603956    -0.05600
Br1616     Br  0.97005735  0.05972492  0.87630245     0.00000
Br1617     Br  0.20138658  0.28938788  0.86859931     0.00500
Br1618     Br  0.07820550  0.15766064  0.91413403    -0.03900
Br1619     Br  0.06635459  0.05689569  0.89482865     0.00600
Br1620     Br  0.01674035  0.15817937  0.88101174    -0.03200
Br1621     Br  0.13323187  0.20559475  0.85539039    -0.04100
Br1622     Br  0.13534581  0.24706199  0.92617242    -0.00100
C1623       C  0.21855603  0.41783516  0.88391436     0.01300
C1624       C  0.20935667  0.44816000  0.88519136     0.04100
C1625       C  0.22692621  0.48097038  0.87582658    -0.11900
C1626       C  0.25420908  0.48441652  0.86520418     0.23400
C1627       C  0.26442554  0.45528423  0.86410263    -0.12500
C1628       C  0.24733836  0.42266519  0.87350280     0.04800
C1629       C  0.27323201  0.51943438  0.85551412     0.27300
C1630       C  0.25399409  0.52182860  0.84301271    -0.13200
C1631       C  0.27064839  0.55613096  0.83445917     0.05400
C1632       C  0.30898394  0.58742191  0.83736928    -0.09200
C1633       C  0.32878626  0.58334397  0.84969989     0.06200
C1634       C  0.31032512  0.55047311  0.85896244    -0.13500
Br1635     Br  0.30267925  0.46075002  0.84972227    -0.05600
Br1636     Br  0.17331127  0.44662676  0.89963645     0.00000
Br1637     Br  0.23719224  0.56068244  0.82046305     0.00500
Br1638     Br  0.33554636  0.54776363  0.87670720    -0.03900
Br1639     Br  0.26740624  0.38748401  0.87280946     0.00600
Br1640     Br  0.21410848  0.52197698  0.87753680    -0.03200
Br1641     Br  0.20387474  0.47784875  0.83796914    -0.04100
Br1642     Br  0.38228956  0.62023724  0.85394139    -0.00100
C1643       C  0.41396271  0.44219523  0.97623591     0.01300
C1644       C  0.38796067  0.40182693  0.97459714     0.04100
C1645       C  0.35618152  0.38859932  0.96490928    -0.11900
C1646       C  0.35225174  0.41546566  0.95595711     0.23400
C1647       C  0.38008802  0.45551001  0.95679025    -0.12500
C1648       C  0.41011736  0.46895118  0.96720326     0.04800
C1649       C  0.31897816  0.40213139  0.94565003     0.27300
C1650       C  0.31933667  0.38525054  0.93212931    -0.13200
C1651       C  0.28847718  0.37399387  0.92212092     0.05400
C1652       C  0.25718817  0.38086541  0.92528228    -0.09200
C1653       C  0.26017991  0.40266032  0.93823358     0.06200
C1654       C  0.28909904  0.41024478  0.94875940    -0.13500
Br1655     Br  0.37731050  0.49192547  0.94346072    -0.05600
Br1656     Br  0.39595603  0.36466700  0.98545500     0.00000
Br1657     Br  0.29260826  0.35301460  0.90347755     0.00500
Br1658     Br  0.28808705  0.43192552  0.96773222    -0.03900
Br1659     Br  0.44691562  0.52410576  0.96864369     0.00600
Br1660     Br  0.31745685  0.33393431  0.96415695    -0.03200
Br1661     Br  0.36305923  0.37850035  0.92727613    -0.04100
Br1662     Br  0.22971628  0.42754261  0.94175200    -0.00100
C1663       C  0.04011647  0.43370208  0.97385898     0.01300
C1664       C  0.02233315  0.39304136  0.97162508     0.04100
C1665       C  0.03830097  0.37794705  0.96146334    -0.11900
C1666       C  0.07241597  0.40337170  0.95366767     0.23400
C1667       C  0.08989500  0.44397970  0.95575562    -0.12500
C1668       C  0.07366123  0.45914154  0.96572782     0.04800
C1669       C  0.09095972  0.38753503  0.94371577     0.27300
C1670       C  0.11591641  0.37523233  0.94952552    -0.13200
C1671       C  0.13462881  0.36158036  0.94009127     0.05400
C1672       C  0.13145580  0.36373782  0.92475253    -0.09200
C1673       C  0.10269785  0.37110794  0.91909144     0.06200
C1674       C  0.08324924  0.38405157  0.92851873    -0.13500
Br1675     Br  0.13648575  0.47873816  0.94501826    -0.05600
Br1676     Br  0.97741781  0.35790425  0.98307202     0.00000
Br1677     Br  0.15975343  0.33484088  0.94823442     0.00500
Br1678     Br  0.04622473  0.39721300  0.92068082    -0.03900
Br1679     Br  0.09676912  0.51497023  0.96780858     0.00600
Br1680     Br  0.01386740  0.32240407  0.95827354    -0.03200
Br1681     Br  0.12485430  0.37761024  0.97040461    -0.04100
Br1682     Br  0.08717777  0.35973877  0.89877238    -0.00100
C1683       C  0.73955401  0.85724348  0.89715028     0.01300
C1684       C  0.76709190  0.89764719  0.89995582     0.04100
C1685       C  0.80648115  0.91434877  0.89570782    -0.11900
C1686       C  0.81818658  0.89492418  0.88586965     0.23400
C1687       C  0.79095528  0.85652931  0.88165619    -0.12500
C1688       C  0.75250744  0.83749628  0.88741210     0.04800
C1689       C  0.85750179  0.91702275  0.87859378     0.27300
C1690       C  0.86412327  0.94474673  0.86766151    -0.13200
C1691       C  0.90124834  0.96711342  0.86115029     0.05400
C1692       C  0.93216853  0.95964158  0.86440504    -0.09200
C1693       C  0.92528713  0.93240513  0.87593227     0.06200
C1694       C  0.88861286  0.91205952  0.88304683    -0.13500
Br1695     Br  0.80656326  0.83049229  0.86753930    -0.05600
Br1696     Br  0.75263026  0.93608748  0.90458724     0.00000
Br1697     Br  0.90832477  0.00954276  0.84871082     0.00500
Br1698     Br  0.88027147  0.87661738  0.89900002    -0.03900
Br1699     Br  0.71737773  0.78541284  0.88027381     0.00600
Br1700     Br  0.84483089  0.96590297  0.90254331    -0.03200
Br1701     Br  0.82140481  0.95176826  0.86152008    -0.04100
Br1702     Br  0.96364199  0.91891373  0.88170532    -0.00100
C1703       C  0.42302480  0.70542317  0.83978182     0.01300
C1704       C  0.42526913  0.72420400  0.85343252     0.04100
C1705       C  0.45845919  0.73776143  0.86246821    -0.11900
C1706       C  0.49225416  0.73874450  0.85714360     0.23400
C1707       C  0.49107124  0.72220202  0.84336114    -0.12500
C1708       C  0.45574501  0.70186535  0.83566286     0.04800
C1709       C  0.52888767  0.75692453  0.86600082     0.27300
C1710       C  0.54908400  0.79748296  0.86880024    -0.13200
C1711       C  0.58185103  0.81396598  0.87811519     0.05400
C1712       C  0.59678422  0.79080478  0.88360847    -0.09200
C1713       C  0.58046428  0.75200233  0.87865790     0.06200
C1714       C  0.54471195  0.73413196  0.87114538    -0.13500
Br1715     Br  0.53838644  0.72850002  0.83475162    -0.05600
Br1716     Br  0.38576696  0.73569470  0.85976845     0.00000
Br1717     Br  0.60720430  0.86859415  0.88261669     0.00500
Br1718     Br  0.51683298  0.67816918  0.86862132    -0.03900
Br1719     Br  0.45249751  0.66531867  0.82102488     0.00600
Br1720     Br  0.45763811  0.75482339  0.88230739    -0.03200
Br1721     Br  0.53246582  0.83060398  0.85956429    -0.04100
Br1722     Br  0.60911005  0.72468737  0.88065333    -0.00100
C1723       C  0.62872638  0.73929033  0.92498064     0.01300
C1724       C  0.58949270  0.70759533  0.92418843     0.04100
C1725       C  0.57542788  0.67609105  0.93423319    -0.11900
C1726       C  0.59986549  0.67469238  0.94506755     0.23400
C1727       C  0.63839747  0.70571568  0.94609432    -0.12500
C1728       C  0.65218800  0.73842963  0.93668966     0.04800
C1729       C  0.58413488  0.64192310  0.95604878     0.27300
C1730       C  0.57395156  0.64760777  0.97030079    -0.13200
C1731       C  0.55983161  0.61724282  0.98079905     0.05400
C1732       C  0.55313593  0.57947243  0.97691096    -0.09200
C1733       C  0.56156000  0.57350985  0.96224773     0.06200
C1734       C  0.57820559  0.60484540  0.95214441    -0.13500
Br1735     Br  0.67208530  0.70365101  0.96089844    -0.05600
Br1736     Br  0.55215155  0.70622804  0.91042890     0.00000
Br1737     Br  0.55125043  0.62917320  0.00058054     0.00500
Br1738     Br  0.59261492  0.59705082  0.93270222    -0.03900
Br1739     Br  0.70053750  0.78437384  0.94214499     0.00600
Br1740     Br  0.52152685  0.63489651  0.93371856    -0.03200
Br1741     Br  0.57836916  0.69719407  0.97526873    -0.04100
Br1742     Br  0.54727526  0.52198231  0.95512532    -0.00100
C1743       C  0.62901444  0.85397362  0.92939150     0.01300
C1744       C  0.63666714  0.89288759  0.92763698     0.04100
C1745       C  0.62121870  0.90903704  0.93751615    -0.11900
C1746       C  0.59422663  0.88549077  0.94822129     0.23400
C1747       C  0.58471068  0.84635435  0.94966275    -0.12500
C1748       C  0.60352422  0.83132248  0.94090007     0.04800
C1749       C  0.57577985  0.90202176  0.95788508     0.27300
C1750       C  0.58719539  0.91072743  0.97268459    -0.13200
C1751       C  0.56932878  0.92587328  0.98185893     0.05400
C1752       C  0.54225064  0.93545901  0.97598480    -0.09200
C1753       C  0.53235228  0.92856945  0.96096186     0.06200
C1754       C  0.54762516  0.91013170  0.95214583    -0.13500
Br1755     Br  0.54521759  0.81318884  0.96361696    -0.05600
Br1756     Br  0.66473661  0.92416105  0.91105314     0.00000
Br1757     Br  0.58323161  0.93463367  0.00237926     0.00500
Br1758     Br  0.52941124  0.89510487  0.93225150    -0.03900
Br1759     Br  0.59589309  0.78102765  0.94606100     0.00600
Br1760     Br  0.63698254  0.96382680  0.93644702    -0.03200
Br1761     Br  0.62819982  0.90293151  0.98025375    -0.04100
Br1762     Br  0.49783590  0.94408938  0.95232092    -0.00100
C1763       C  0.13342972  0.84642379  0.89389008     0.01300
C1764       C  0.12666490  0.84685414  0.87851443     0.04100
C1765       C  0.11376233  0.87141210  0.87279572    -0.11900
C1766       C  0.09907492  0.88918509  0.88217233     0.23400
C1767       C  0.09928230  0.88381901  0.89739863    -0.12500
C1768       C  0.11728979  0.86380254  0.90330641     0.04800
C1769       C  0.08143337  0.91163371  0.87592125     0.27300
C1770       C  0.10074548  0.95243454  0.87716847    -0.13200
C1771       C  0.08416519  0.97373984  0.87123112     0.05400
C1772       C  0.04951396  0.95492713  0.86270067    -0.09200
C1773       C  0.03153550  0.91376729  0.86100365     0.06200
C1774       C  0.04600212  0.89226810  0.86829250    -0.13500
Br1775     Br  0.07382082  0.90347998  0.91010952    -0.05600
Br1776     Br  0.12202730  0.80673374  0.86524723     0.00000
Br1777     Br  0.11278915  0.02899104  0.87396148     0.00500
Br1778     Br  0.01714536  0.83580914  0.86792606    -0.03900
Br1779     Br  0.11670935  0.85931989  0.92444058     0.00600
Br1780     Br  0.11520696  0.87984662  0.85185584    -0.03200
Br1781     Br  0.15132539  0.97916440  0.88647922    -0.04100
Br1782     Br  0.98772563  0.88539679  0.84837171    -0.00100
C1783       C  0.21439916  0.77854988  0.88765237     0.01300
C1784       C  0.25237850  0.78590173  0.89070832     0.04100
C1785       C  0.26947543  0.76945701  0.88176462    -0.11900
C1786       C  0.24910151  0.74624290  0.86959886     0.23400
C1787       C  0.21076872  0.73744633  0.86686909    -0.12500
C1788       C  0.19302085  0.75238658  0.87614133     0.04800
C1789       C  0.26783570  0.73068759  0.85971991     0.27300
C1790       C  0.29414902  0.75485558  0.84899320    -0.13200
C1791       C  0.31288042  0.74064463  0.83984641     0.05400
C1792       C  0.30326673  0.70090279  0.84049788    -0.09200
C1793       C  0.27660584  0.67692022  0.85152188     0.06200
C1794       C  0.25960873  0.69201446  0.86117244    -0.13500
Br1795     Br  0.18242878  0.70431729  0.85047262    -0.05600
Br1796     Br  0.28145110  0.81786187  0.90708399     0.00000
Br1797     Br  0.35533583  0.77832158  0.82827552     0.00500
Br1798     Br  0.22483240  0.65988092  0.87660151    -0.03900
Br1799     Br  0.13776119  0.73178916  0.87429188     0.00600
Br1800     Br  0.32083397  0.77826342  0.88614076    -0.03200
Br1801     Br  0.30493703  0.80806778  0.84712238    -0.04100
Br1802     Br  0.26109717  0.62285115  0.85369035    -0.00100
C1803       C  0.11998187  0.72995469  0.92285447     0.01300
C1804       C  0.08942565  0.72425414  0.93259461     0.04100
C1805       C  0.07105935  0.69077729  0.94149484    -0.11900
C1806       C  0.08518356  0.66463310  0.94194972     0.23400
C1807       C  0.11523274  0.66972849  0.93247589    -0.12500
C1808       C  0.13100662  0.70080799  0.92241540     0.04800
C1809       C  0.06922121  0.63245175  0.95278484     0.27300
C1810       C  0.08047398  0.64046710  0.96760485    -0.13200
C1811       C  0.06449357  0.61036890  0.97805376     0.05400
C1812       C  0.03887303  0.57147486  0.97356155    -0.09200
C1813       C  0.02885153  0.56339969  0.95852091     0.06200
C1814       C  0.04303341  0.59403441  0.94828696    -0.13500
Br1815     Br  0.13553973  0.63438715  0.93368307    -0.05600
Br1816     Br  0.07434124  0.76307531  0.93562390     0.00000
Br1817     Br  0.07670116  0.62354135  0.99854393     0.00500
Br1818     Br  0.02677389  0.58358775  0.92801099    -0.03900
Br1819     Br  0.16524829  0.69996659  0.90764342     0.00600
Br1820     Br  0.02691364  0.68083844  0.95357406    -0.03200
Br1821     Br  0.11842510  0.69286969  0.97351190    -0.04100
Br1822     Br  0.99823631  0.51039927  0.95142846    -0.00100
C1823       C  0.23175400  0.84949818  0.93090591     0.01300
C1824       C  0.26774174  0.88307687  0.92750966     0.04100
C1825       C  0.29834276  0.89811009  0.93781059    -0.11900
C1826       C  0.29332590  0.87990346  0.95155072     0.23400
C1827       C  0.25704910  0.84758212  0.95520652    -0.12500
C1828       C  0.22632680  0.83261835  0.94498337     0.04800
C1829       C  0.32649256  0.89440406  0.96202314     0.27300
C1830       C  0.35113931  0.87827466  0.96187251    -0.13200
C1831       C  0.38361441  0.89317998  0.97129061     0.05400
C1832       C  0.39251014  0.92536007  0.98045571    -0.09200
C1833       C  0.36683855  0.94025673  0.98109814     0.06200
C1834       C  0.33373299  0.92458930  0.97199620    -0.13500
Br1835     Br  0.24973636  0.82379047  0.97428403    -0.05600
Br1836     Br  0.27647827  0.90741333  0.90844919     0.00000
Br1837     Br  0.41596281  0.86963356  0.97156223     0.00500
Br1838     Br  0.29828109  0.94449077  0.97305572    -0.03900
Br1839     Br  0.17632747  0.79024642  0.95071884     0.00600
Br1840     Br  0.34773030  0.94326639  0.93304877    -0.03200
Br1841     Br  0.34079050  0.83637175  0.94844871    -0.04100
Br1842     Br  0.37641114  0.98128135  0.99484840    -0.00100
loop_ 
_geom_bond_atom_site_label_1 
_geom_bond_atom_site_label_2 
_geom_bond_distance 
_geom_bond_site_symmetry_2 
_ccdc_geom_bond_type 
C1            C2   1.542       .  S
C1            C7   1.545       .  S
C1            C5   1.545       .  S
C1         C1763   1.560       .  S
C2            H9   1.084       .  S
C2            C3   1.371       .  D
C3            C4   1.543       .  S
C3         C1803   1.510       .  S
C4            C8   1.543       .  S
C4            C6   1.540       .  S
C4           H10   1.108       .  S
C5           H11   1.085       .  S
C5            C6   1.365       .  D
C6         C1823   1.495       .  S
C7           H12   1.080       .  S
C7            C8   1.368       .  D
C8         C1783   1.494       .  S
C13          C14   1.556       .  S
C13          C19   1.538       .  S
C13          C17   1.555       .  S
C13        C1683   1.581       .  S
C14          H21   1.078       .  S
C14          C15   1.370       .  D
C15          C16   1.538       .  S
C15        C1743   1.512       .  S
C16          C20   1.547       .  S
C16          C18   1.556       .  S
C16          H22   1.104       .  S
C17          H23   1.085       .  S
C17          C18   1.383       .  D
C18        C1723   1.532       .  S
C19          H24   1.086       .  S
C19          C20   1.361       .  D
C20        C1712   1.494       .  S
C25          C26   1.555       .  S
C25          C31   1.531       .  S
C25          C29   1.541       .  S
C25        C1612   1.557       .  S
C26          H33   1.080       .  S
C26          C27   1.373       .  D
C27          C28   1.541       .  S
C27        C1623   1.515       .  S
C28          C32   1.558       .  S
C28          C30   1.546       .  S
C28          H34   1.098       .  S
C29          H35   1.085       .  S
C29          C30   1.374       .  D
C30        C1652   1.519       .  S
C31          H36   1.086       .  S
C31          C32   1.356       .  D
C32        C1672   1.487       .  S
C37          C43   1.556       .  S
C37          C42   1.553       .  S
C37          C41   1.547       .  S
C37          H38   1.105       .  S
C39          C45   1.551       .  S
C39          C44   1.563       .  S
C39          C46   1.555       .  S
C39          H40   1.103       .  S
C41          C44   1.389       .  D
C41        C1632   1.530       .  S
C42          C45   1.383       .  D
C42        C1792   1.514       .  S
C43          C46   1.390       .  D
C43        C1703   1.527       .  S
C44        C1563   1.518       .  S
C45        C1583   1.522       .  S
C46        C1543   1.522       .  S
O47         Ni55   1.916       .  S
O47          C57   1.281   1_565  A
O48         Ni55   1.916   1_556  S
O48          C58   1.281       .  A
O49         Ni55   1.920       .  S
O49          C59   1.282   1_565  A
O50         Ni55   1.928   1_556  S
O50          C60   1.282       .  A
O51         Ni56   1.920   1_565  S
O51          C60   1.281       .  A
O52         Ni56   1.927   1_554  S
O52          C59   1.282       .  A
O53         Ni56   1.923   1_565  S
O53          C58   1.282       .  A
O54         Ni56   1.923   1_554  S
O54          C57   1.282       .  A
Ni55        Ni56   2.386   1_564  S
C57        C1523   1.496       .  S
C58        C1752   1.480       .  S
C59        C1512   1.482       .  S
C60        C1832   1.481       .  S
C61          C62   1.557       .  S
C61          C67   1.533       .  S
C61          C65   1.545       .  S
C61        C1443   1.562       .  S
C62          H69   1.085       .  S
C62          C63   1.381       .  D
C63          C64   1.552       .  S
C63        C1463   1.527       .  S
C64          C68   1.546       .  S
C64          C66   1.549       .  S
C64          H70   1.109       .  S
C65          H71   1.081       .  S
C65          C66   1.366       .  D
C66        C1483   1.507       .  S
C67          H72   1.086       .  S
C67          C68   1.362       .  D
C68        C1532   1.496       .  S
C73          C74   1.544       .  S
C73          C79   1.543       .  S
C73          C77   1.551       .  S
C73        C1363   1.564       .  S
C74          H81   1.085       .  S
C74          C75   1.374       .  D
C75          C76   1.546       .  S
C75        C1432   1.513       .  S
C76          C80   1.541       .  S
C76          C78   1.544       .  S
C76          H82   1.109       .  S
C77          H83   1.082       .  S
C77          C78   1.370       .  D
C78        C1412   1.506       .  S
C79          H84   1.085       .  S
C79          C80   1.365       .  D
C80        C1383   1.494       .  S
C85          C86   1.561       .  S
C85          C91   1.539       .  S
C85          C89   1.539       .  S
C85        C1303   1.571       .  S
C86          H93   1.080       .  S
C86          C87   1.383       .  D
C87          C88   1.548       .  S
C87        C1503   1.525       .  S
C88          C92   1.541       .  S
C88          C90   1.545       .  S
C88          H94   1.107       .  S
C89          H95   1.086       .  S
C89          C90   1.363       .  D
C90        C1343   1.492       .  S
C91          H96   1.086       .  S
C91          C92   1.364       .  D
C92        C1323   1.502       .  S
C97         C103   1.560       .  S
C97         C102   1.554       .  S
C97         C101   1.555       .  S
C97          H98   1.106       .  S
C99         C105   1.556       .  S
C99         C104   1.553       .  S
C99         C106   1.552       .  S
C99         H100   1.105       .  S
C101        C104   1.383       .  D
C101       C1472   1.525       .  S
C102        C105   1.388       .  D
C102       C1332   1.524       .  S
C103        C106   1.387       .  D
C103       C1392   1.522       .  S
C104       C1292   1.515       .  S
C105       C1243   1.521       .  S
C106       C1263   1.524       .  S
O107       Ni115   1.919       .  S
O107        C117   1.281   1_455  A
O108       Ni115   1.915   1_556  S
O108        C118   1.281       .  A
O109       Ni115   1.923       .  S
O109        C119   1.281   1_455  A
O110       Ni115   1.919   1_556  S
O110        C120   1.281       .  A
O111       Ni116   1.923       .  S
O111        C120   1.282   1_655  A
O112       Ni116   1.926   1_554  S
O112        C119   1.282       .  A
O113       Ni116   1.912       .  S
O113        C118   1.280   1_655  A
O114       Ni116   1.915   1_554  S
O114        C117   1.281       .  A
Ni115      Ni116   2.386   1_454  S
C117       C1352   1.489       .  S
C118       C1812   1.483       .  S
C119       C1423   1.481       .  S
C120       C1663   1.481       .  S
O121       Ni129   1.938       .  S
O121        C131   1.285       .  A
O122       Ni129   1.928   1_554  S
O122        C132   1.283       .  A
O123       Ni129   1.919       .  S
O123        C133   1.280       .  A
O124       Ni129   1.913   1_554  S
O124        C134   1.280       .  A
O125       Ni130   1.928       .  S
O125        C134   1.283       .  A
O126       Ni130   1.918   1_556  S
O126        C133   1.282       .  A
O127       Ni130   1.926       .  S
O127        C132   1.282       .  A
O128       Ni130   1.923   1_556  S
O128        C131   1.281       .  A
Ni129      Ni130   2.381   1_556  S
C131       C1732   1.513       .  S
C132       C1492   1.486       .  S
C133       C1643   1.476       .  S
C134       C1403   1.497       .  S
C135        C136   1.550   1_655  S
C135        C141   1.550       .  S
C135        C139   1.533       .  S
C135       C1172   1.561       .  S
C136        H143   1.078       .  S
C136        C137   1.376       .  D
C137        C138   1.545       .  S
C137       C1192   1.521       .  S
C138        C142   1.539       .  S
C138        C140   1.544       .  S
C138        H144   1.105       .  S
C139        H145   1.086       .  S
C139        C140   1.368   1_655  D
C140       C1203   1.489       .  S
C141        H146   1.085       .  S
C141        C142   1.367   1_655  D
C142       C1223   1.501       .  S
C147        C148   1.533       .  S
C147        C153   1.562       .  S
C147        C151   1.528       .  S
C147       C1083   1.549       .  S
C148        H155   1.086       .  S
C148        C149   1.365       .  D
C149        C150   1.540       .  S
C149       C1123   1.503       .  S
C150        C154   1.540       .  S
C150        C152   1.555       .  S
C150        H156   1.097       .  S
C151        H157   1.087       .  S
C151        C152   1.352       .  D
C152       C1143   1.478       .  S
C153        H158   1.081       .  S
C153        C154   1.383       .  D
C154       C1103   1.523       .  S
C159        C160   1.544       .  S
C159        C165   1.552   1_545  S
C159        C163   1.538       .  S
C159       C1003   1.562       .  S
C160        H167   1.083       .  S
C160        C161   1.358   1_545  D
C161        C162   1.530       .  S
C161       C1043   1.480       .  S
C162        C166   1.545       .  S
C162        C164   1.546       .  S
C162        H168   1.103       .  S
C163        H169   1.086       .  S
C163        C164   1.371   1_545  D
C164       C1072   1.506       .  S
C165        H170   1.078   1_565  S
C165        C166   1.378       .  D
C166       C1023   1.520       .  S
C171        C177   1.576       .  S
C171        C176   1.530       .  S
C171        C175   1.567       .  S
C171        H172   1.089       .  S
C173        C179   1.579       .  S
C173        C178   1.552       .  S
C173        C180   1.553       .  S
C173        H174   1.098       .  S
C175        C178   1.387       .  D
C175        C972   1.534       .  S
C176        C179   1.377       .  D
C176        C983   1.502       .  S
C177        C180   1.399       .  D
C177        C952   1.546       .  S
C178       C1112   1.532       .  S
C179       C1183   1.528       .  S
C180       C1032   1.535       .  S
C181        C182   1.536       .  S
C181        C187   1.564       .  S
C181        C185   1.528       .  S
C181       C1283   1.553       .  S
C182        H189   1.086       .  S
C182        C183   1.366       .  D
C183        C184   1.541       .  S
C183        C923   1.508       .  S
C184        C188   1.543       .  S
C184        C186   1.555       .  S
C184        H190   1.098       .  S
C185        H191   1.087       .  S
C185        C186   1.351       .  D
C186        C903   1.477       .  S
C187        H192   1.083       .  S
C187        C188   1.386       .  D
C188        C883   1.531       .  S
C193        C194   1.531       .  S
C193        C199   1.544       .  S
C193        C197   1.550       .  S
C193       C1272   1.555       .  S
C194        H201   1.086       .  S
C194        C195   1.362       .  D
C195        C196   1.547       .  S
C195        C832   1.501       .  S
C196        C200   1.542       .  S
C196        C198   1.555       .  S
C196        H202   1.109       .  S
C197        H203   1.085       .  S
C197        C198   1.379       .  D
C198        C852   1.513       .  S
C199        H204   1.080       .  S
C199        C200   1.359       .  D
C200        C872   1.496       .  S
C205        C206   1.560       .  S
C205        C211   1.546       .  S
C205        C209   1.527       .  S
C205       C1252   1.558       .  S
C206        H213   1.084       .  S
C206        C207   1.387       .  D
C207        C208   1.542       .  S
C207        C812   1.523       .  S
C208        C212   1.535       .  S
C208        C210   1.550       .  S
C208        H214   1.097       .  S
C209        H215   1.084       .  S
C209        C210   1.344       .  D
C210        C783   1.474       .  S
C211        H216   1.086       .  S
C211        C212   1.373       .  D
C212        C772   1.513       .  S
C217        C223   1.544   1_665  S
C217        C222   1.569   1_565  S
C217        C221   1.570       .  S
C217        H218   1.087       .  S
C219        C225   1.554   1_565  S
C219        C224   1.554       .  S
C219        C226   1.574   1_665  S
C219        H220   1.082       .  S
C221        C224   1.395       .  D
C221        C823   1.525       .  S
C222        C225   1.402       .  D
C222        C763   1.547       .  S
C223        C226   1.379       .  D
C223        C892   1.531       .  S
C224       C1372   1.549       .  S
C225       C1312   1.533       .  S
C226       C1452   1.528       .  S
O227       Ni235   1.926       .  S
O227        C237   1.283       .  A
O228       Ni235   1.933       .  S
O228        C238   1.285       .  A
O229       Ni235   1.907       .  S
O229        C239   1.277       .  A
O230       Ni235   1.908       .  S
O230        C240   1.278       .  A
O231       Ni236   1.912       .  S
O231        C240   1.281       .  A
O232       Ni236   1.918       .  S
O232        C239   1.282       .  A
O233       Ni236   1.915       .  S
O233        C238   1.279       .  A
O234       Ni236   1.918       .  S
O234        C237   1.280       .  A
Ni235      Ni236   2.381       .  S
C237       C1232   1.507       .  S
C238        C932   1.483       .  S
C239       C1132   1.472       .  S
C240        C792   1.484       .  S
O241       Ni249   1.926       .  S
O241        C251   1.283       .  A
O242       Ni249   1.914       .  S
O242        C252   1.280       .  A
O243       Ni249   1.912       .  S
O243        C253   1.279       .  A
O244       Ni249   1.908       .  S
O244        C254   1.278       .  A
O245       Ni250   1.921       .  S
O245        C254   1.281       .  A
O246       Ni250   1.918       .  S
O246        C253   1.282       .  A
O247       Ni250   1.913       .  S
O247        C252   1.280       .  A
O248       Ni250   1.906       .  S
O248        C251   1.277       .  A
Ni249      Ni250   2.382       .  S
C251        C803   1.469       .  S
C252       C1152   1.476       .  S
C253        C863   1.490       .  S
C254       C1052   1.503       .  S
O255       Ni263   1.911       .  S
O255        C265   1.279       .  A
O256       Ni263   1.914       .  S
O256        C266   1.280       .  A
O257       Ni263   1.921       .  S
O257        C267   1.280       .  A
O258       Ni263   1.926       .  S
O258        C268   1.283       .  A
O259       Ni264   1.914       .  S
O259        C268   1.278       .  A
O260       Ni264   1.925       .  S
O260        C267   1.282       .  A
O261       Ni264   1.914       .  S
O261        C266   1.281       .  A
O262       Ni264   1.911       .  S
O262        C265   1.279       .  A
Ni263      Ni264   2.385       .  S
C265        C912   1.494       .  S
C266       C1212   1.482       .  S
C267        C843   1.478       .  S
C268       C1063   1.474       .  S
C269        C270   1.533       .  S
C269        C275   1.550       .  S
C269        C273   1.535       .  S
C269       C1552   1.547       .  S
C270        H277   1.086       .  S
C270        C271   1.366       .  D
C271        C272   1.545       .  S
C271        C703   1.500       .  S
C272        C276   1.552       .  S
C272        C274   1.541       .  S
C272        H278   1.108       .  S
C273        H279   1.082       .  S
C273        C274   1.354       .  D
C274        C723   1.482       .  S
C275        H280   1.085       .  S
C275        C276   1.379       .  D
C276        C752   1.514       .  S
C281        C282   1.537       .  S
C281        C287   1.533       .  S
C281        C285   1.552       .  S
C281       C1572   1.552       .  S
C282        H289   1.077       .  S
C282        C283   1.358       .  D
C283        C284   1.541       .  S
C283        C692   1.492       .  S
C284        C288   1.546       .  S
C284        C286   1.547       .  S
C284        H290   1.109       .  S
C285        H291   1.085       .  S
C285        C286   1.377       .  D
C286        C663   1.512       .  S
C287        H292   1.086       .  S
C287        C288   1.365       .  D
C288        C652   1.497       .  S
C293        C294   1.543       .  S
C293        C299   1.548       .  S
C293        C297   1.543       .  S
C293       C1592   1.564       .  S
C294        H301   1.086       .  S
C294        C295   1.375       .  D
C295        C296   1.547       .  S
C295        C603   1.511       .  S
C296        C300   1.543       .  S
C296        C298   1.546       .  S
C296        H302   1.109       .  S
C297        H303   1.085       .  S
C297        C298   1.368       .  D
C298        C623   1.504       .  S
C299        H304   1.082       .  S
C299        C300   1.366       .  D
C300        C583   1.498       .  S
C305        C311   1.564       .  S
C305        C310   1.549   1_545  S
C305        C309   1.561   1_445  S
C305        H306   1.102       .  S
C307        C313   1.580       .  S
C307        C312   1.569   1_455  S
C307        C314   1.552   1_565  S
C307        H308   1.106       .  S
C309        C312   1.396       .  D
C309        C712   1.534       .  S
C310        C313   1.381       .  D
C310        C592   1.536       .  S
C311        C314   1.397       .  D
C311        C643   1.535       .  S
C312       C1692   1.541       .  S
C313       C1772   1.525       .  S
C314       C1603   1.524       .  S
C315        C316   1.541   1_565  S
C315        C321   1.549       .  S
C315        C319   1.537       .  S
C315        C943   1.556       .  S
C316        H323   1.086       .  S
C316        C317   1.362       .  D
C317        C318   1.543       .  S
C317        C532   1.489       .  S
C318        C322   1.548       .  S
C318        C320   1.544       .  S
C318        H324   1.107       .  S
C319        H325   1.086       .  S
C319        C320   1.369   1_565  D
C320        C552   1.505       .  S
C321        H326   1.083       .  S
C321        C322   1.374   1_565  D
C322        C572   1.508       .  S
C327        C328   1.548       .  S
C327        C333   1.551   1_455  S
C327        C331   1.536       .  S
C327        C992   1.561       .  S
C328        H335   1.077       .  S
C328        C329   1.362   1_455  D
C329        C330   1.539       .  S
C329        C483   1.498       .  S
C330        C334   1.544       .  S
C330        C332   1.544       .  S
C330        H336   1.109       .  S
C331        H337   1.086       .  S
C331        C332   1.365   1_455  D
C332        C503   1.490       .  S
C333        H338   1.085   1_655  S
C333        C334   1.378       .  D
C334        C463   1.513       .  S
C339        C340   1.547       .  S
C339        C345   1.556       .  S
C339        C343   1.527       .  S
C339        C963   1.556       .  S
C340        H347   1.080       .  S
C340        C341   1.372       .  D
C341        C342   1.550       .  S
C341        C452   1.511       .  S
C342        C346   1.548       .  S
C342        C344   1.546       .  S
C342        H348   1.108       .  S
C343        H349   1.087       .  S
C343        C344   1.357       .  D
C344        C423   1.487       .  S
C345        H350   1.084       .  S
C345        C346   1.377       .  D
C346        C412   1.521       .  S
C351        C357   1.558       .  S
C351        C356   1.525       .  S
C351        C355   1.563       .  S
C351        H352   1.092       .  S
C353        C359   1.570       .  S
C353        C358   1.565       .  S
C353        C360   1.540       .  S
C353        H354   1.083       .  S
C355        C358   1.412       .  D
C355        C523   1.547       .  S
C356        C359   1.376       .  D
C356        C403   1.511       .  S
C357        C360   1.380       .  D
C357        C472   1.519       .  S
C358       C1012   1.556       .  S
C359       C1092   1.515       .  S
C360       C1163   1.523       .  S
O361       Ni369   1.916       .  S
O361        C371   1.280       .  A
O362       Ni369   1.919       .  S
O362        C372   1.281       .  A
O363       Ni369   1.919       .  S
O363        C373   1.281       .  A
O364       Ni369   1.923       .  S
O364        C374   1.281       .  A
O365       Ni370   1.918       .  S
O365        C374   1.280       .  A
O366       Ni370   1.916       .  S
O366        C373   1.279       .  A
O367       Ni370   1.922       .  S
O367        C372   1.282       .  A
O368       Ni370   1.923       .  S
O368        C371   1.282       .  A
Ni369      Ni370   2.382       .  S
C371        C612   1.504       .  S
C372        C432   1.498       .  S
C373        C743   1.472       .  S
C374        C492   1.474       .  S
O375       Ni383   1.918       .  S
O375        C385   1.280       .  A
O376       Ni383   1.934       .  S
O376        C386   1.283       .  A
O377       Ni383   1.902       .  S
O377        C387   1.277       .  A
O378       Ni383   1.901       .  S
O378        C388   1.276       .  A
O379       Ni384   1.920       .  S
O379        C388   1.281       .  A
O380       Ni384   1.921       .  S
O380        C387   1.282       .  A
O381       Ni384   1.914       .  S
O381        C386   1.279       .  A
O382       Ni384   1.929       .  S
O382        C385   1.282       .  A
Ni383      Ni384   2.380       .  S
C385        C443   1.478       .  S
C386        C632   1.480       .  S
C387        C563   1.497       .  S
C388        C683   1.498       .  S
O389       Ni397   1.923       .  S
O389        C399   1.281       .  A
O390       Ni397   1.918       .  S
O390        C400   1.281       .  A
O391       Ni397   1.914       .  S
O391        C401   1.280       .  A
O392       Ni397   1.914       .  S
O392        C402   1.281       .  A
O393       Ni398   1.912       .  S
O393        C402   1.279       .  A
O394       Ni398   1.908       .  S
O394        C401   1.279       .  A
O395       Ni398   1.921       .  S
O395        C400   1.280       .  A
O396       Ni398   1.922       .  S
O396        C399   1.281       .  A
Ni397      Ni398   2.381       .  S
C399        C672   1.477       .  S
C400        C543   1.473       .  S
C401        C732   1.488       .  S
C402        C512   1.494       .  S
C403        C404   1.417       .  A
C403        C408   1.420       .  A
C404        C405   1.408       .  A
C404       Br416   1.915       .  S
C405        C406   1.405       .  A
C405       Br420   1.932       .  S
C406        C409   1.488       .  S
C406        C407   1.405       .  A
C407        C408   1.410       .  A
C407       Br415   1.933       .  S
C408       Br419   1.921       .  S
C409        C410   1.402       .  A
C409        C414   1.402       .  A
C410        C411   1.411       .  A
C410       Br421   1.934       .  S
C411        C412   1.426       .  A
C411       Br417   1.917       .  S
C412        C413   1.425       .  A
C413        C414   1.410       .  A
C413       Br422   1.917       .  S
C414       Br418   1.935       .  S
C423        C424   1.409       .  A
C423        C428   1.415       .  A
C424        C425   1.408       .  A
C424       Br436   1.925       .  S
C425        C426   1.409       .  A
C425       Br440   1.929       .  S
C426        C429   1.488       .  S
C426        C427   1.408       .  A
C427        C428   1.408       .  A
C427       Br435   1.930       .  S
C428       Br439   1.934       .  S
C429        C430   1.406       .  A
C429        C434   1.406       .  A
C430        C431   1.409       .  A
C430       Br441   1.933       .  S
C431        C432   1.422       .  A
C431       Br437   1.934       .  S
C432        C433   1.423       .  A
C433        C434   1.411       .  A
C433       Br442   1.934       .  S
C434       Br438   1.932       .  S
C443        C444   1.410       .  A
C443        C448   1.409       .  A
C444        C445   1.409       .  A
C444       Br456   1.929       .  S
C445        C446   1.411       .  A
C445       Br460   1.929       .  S
C446        C449   1.490       .  S
C446        C447   1.410       .  A
C447        C448   1.410       .  A
C447       Br455   1.929       .  S
C448       Br459   1.929       .  S
C449        C450   1.405       .  A
C449        C454   1.405       .  A
C450        C451   1.409       .  A
C450       Br461   1.935       .  S
C451        C452   1.422       .  A
C451       Br457   1.922       .  S
C452        C453   1.426       .  A
C453        C454   1.413       .  A
C453       Br462   1.935       .  S
C454       Br458   1.930       .  S
C463        C464   1.423       .  A
C463        C468   1.422       .  A
C464        C465   1.411       .  A
C464       Br476   1.918       .  S
C465        C466   1.403       .  A
C465       Br480   1.934       .  S
C466        C469   1.487       .  S
C466        C467   1.402       .  A
C467        C468   1.409       .  A
C467       Br475   1.933       .  S
C468       Br479   1.917       .  S
C469        C470   1.403       .  A
C469        C474   1.401       .  A
C470        C471   1.410       .  A
C470       Br481   1.934       .  S
C471        C472   1.424       .  A
C471       Br477   1.924       .  S
C472        C473   1.426       .  A
C473        C474   1.409       .  A
C473       Br482   1.920       .  S
C474       Br478   1.934       .  S
C483        C484   1.413       .  A
C483        C488   1.419       .  A
C484        C485   1.410       .  A
C484       Br496   1.920       .  S
C485        C486   1.409       .  A
C485       Br500   1.931       .  S
C486        C489   1.488       .  S
C486        C487   1.406       .  A
C487        C488   1.407       .  A
C487       Br495   1.932       .  S
C488       Br499   1.932       .  S
C489        C490   1.412       .  A
C489        C494   1.410       .  A
C490        C491   1.408       .  A
C490       Br501   1.930       .  S
C491        C492   1.408       .  A
C491       Br497   1.928       .  S
C492        C493   1.409       .  A
C493        C494   1.408       .  A
C493       Br502   1.929       .  S
C494       Br498   1.929       .  S
C503        C504   1.413       .  A
C503        C508   1.420       .  A
C504        C505   1.408       .  A
C504       Br516   1.927       .  S
C505        C506   1.408       .  A
C505       Br520   1.931       .  S
C506        C509   1.482       .  S
C506        C507   1.406       .  A
C507        C508   1.405       .  A
C507       Br515   1.934   1_655  S
C508       Br519   1.935   1_655  S
C509        C510   1.406       .  A
C509        C514   1.404       .  A
C510        C511   1.406       .  A
C510       Br521   1.932       .  S
C511        C512   1.421       .  A
C511       Br517   1.936       .  S
C512        C513   1.426       .  A
C513        C514   1.408       .  A
C513       Br522   1.937       .  S
C514       Br518   1.934       .  S
C523        C524   1.413       .  A
C523        C528   1.430       .  A
C524        C525   1.408       .  A
C524       Br536   1.910       .  S
C525        C526   1.405       .  A
C525       Br540   1.927       .  S
C526        C529   1.490       .  S
C526        C527   1.406       .  A
C527        C528   1.412       .  A
C527       Br535   1.934       .  S
C528       Br539   1.932       .  S
C529        C530   1.412       .  A
C529        C534   1.409       .  A
C530        C531   1.408       .  A
C530       Br541   1.933       .  S
C531        C532   1.415       .  A
C531       Br537   1.934       .  S
C532        C533   1.410       .  A
C533        C534   1.408       .  A
C533       Br542   1.922       .  S
C534       Br538   1.931       .  S
C543        C544   1.409       .  A
C543        C548   1.408       .  A
C544        C545   1.408       .  A
C544       Br556   1.928       .  S
C545        C546   1.410       .  A
C545       Br560   1.929       .  S
C546        C549   1.486       .  S
C546        C547   1.410       .  A
C547        C548   1.407       .  A
C547       Br555   1.929       .  S
C548       Br559   1.928       .  S
C549        C550   1.404       .  A
C549        C554   1.405       .  A
C550        C551   1.408       .  A
C550       Br561   1.935       .  S
C551        C552   1.420       .  A
C551       Br557   1.922       .  S
C552        C553   1.422       .  A
C553        C554   1.411       .  A
C553       Br562   1.929       .  S
C554       Br558   1.931       .  S
C563        C564   1.425       .  A
C563        C568   1.427       .  A
C564        C565   1.409       .  A
C564       Br576   1.935       .  S
C565        C566   1.404       .  A
C565       Br580   1.933       .  S
C566        C569   1.481       .  S
C566        C567   1.404       .  A
C567        C568   1.405       .  A
C567       Br575   1.937       .  S
C568       Br579   1.939       .  S
C569        C570   1.402       .  A
C569        C574   1.405       .  A
C570        C571   1.404       .  A
C570       Br581   1.933   1_545  S
C571        C572   1.420       .  A
C571       Br577   1.924   1_545  S
C572        C573   1.423       .  A
C573        C574   1.410       .  A
C573       Br582   1.920       .  S
C574       Br578   1.936       .  S
C583        C584   1.413       .  A
C583        C588   1.419       .  A
C584        C585   1.411       .  A
C584       Br596   1.923       .  S
C585        C586   1.410       .  A
C585       Br600   1.932       .  S
C586        C589   1.491       .  S
C586        C587   1.407       .  A
C587        C588   1.408       .  A
C587       Br595   1.933       .  S
C588       Br599   1.929       .  S
C589        C590   1.401       .  A
C589        C594   1.403       .  A
C590        C591   1.409       .  A
C590       Br601   1.936       .  S
C591        C592   1.427       .  A
C591       Br597   1.912   1_565  S
C592        C593   1.428       .  A
C593        C594   1.413       .  A
C593       Br602   1.916   1_455  S
C594       Br598   1.936       .  S
C603        C604   1.424       .  A
C603        C608   1.422       .  A
C604        C605   1.411       .  A
C604       Br616   1.922       .  S
C605        C606   1.404       .  A
C605       Br620   1.935   1_455  S
C606        C609   1.488   1_455  S
C606        C607   1.404       .  A
C607        C608   1.409       .  A
C607       Br615   1.934       .  S
C608       Br619   1.925       .  S
C609        C610   1.404       .  A
C609        C614   1.404       .  A
C610        C611   1.410       .  A
C610       Br621   1.933       .  S
C611        C612   1.426       .  A
C611       Br617   1.935       .  S
C612        C613   1.426       .  A
C613        C614   1.409       .  A
C613       Br622   1.936       .  S
C614       Br618   1.935   1_655  S
C623        C624   1.417       .  A
C623        C628   1.421       .  A
C624        C625   1.411       .  A
C624       Br636   1.925       .  S
C625        C626   1.408       .  A
C625       Br640   1.932       .  S
C626        C629   1.493   1_565  S
C626        C627   1.407       .  A
C627        C628   1.412       .  A
C627       Br635   1.930   1_565  S
C628       Br639   1.934       .  S
C629        C630   1.411       .  A
C629        C634   1.411       .  A
C630        C631   1.411       .  A
C630       Br641   1.928   1_545  S
C631        C632   1.409       .  A
C631       Br637   1.928       .  S
C632        C633   1.409       .  A
C633        C634   1.410       .  A
C633       Br642   1.928       .  S
C634       Br638   1.930       .  S
C643        C644   1.432       .  A
C643        C648   1.424       .  A
C644        C645   1.413       .  A
C644       Br656   1.911       .  S
C645        C646   1.401       .  A
C645       Br660   1.942       .  S
C646        C649   1.493       .  S
C646        C647   1.405       .  A
C647        C648   1.412       .  A
C647       Br655   1.936       .  S
C648       Br659   1.915   1_455  S
C649        C650   1.410       .  A
C649        C654   1.410       .  A
C650        C651   1.410       .  A
C650       Br661   1.930       .  S
C651        C652   1.419       .  A
C651       Br657   1.936       .  S
C652        C653   1.414       .  A
C653        C654   1.407       .  A
C653       Br662   1.924       .  S
C654       Br658   1.935       .  S
C663        C664   1.421       .  A
C663        C668   1.423       .  A
C664        C665   1.411       .  A
C664       Br676   1.921       .  S
C665        C666   1.404       .  A
C665       Br680   1.931   1_455  S
C666        C669   1.486   1_455  S
C666        C667   1.402       .  A
C667        C668   1.409       .  A
C667       Br675   1.936       .  S
C668       Br679   1.916       .  S
C669        C670   1.409       .  A
C669        C674   1.409       .  A
C670        C671   1.409       .  A
C670       Br681   1.930       .  S
C671        C672   1.410       .  A
C671       Br677   1.926       .  S
C672        C673   1.409       .  A
C673        C674   1.408       .  A
C673       Br682   1.927       .  S
C674       Br678   1.929   1_655  S
C683        C684   1.429       .  A
C683        C688   1.426       .  A
C684        C685   1.404       .  A
C684       Br696   1.939       .  S
C685        C686   1.400       .  A
C685       Br700   1.936       .  S
C686        C689   1.476       .  S
C686        C687   1.403       .  A
C687        C688   1.407       .  A
C687       Br695   1.935       .  S
C688       Br699   1.936       .  S
C689        C690   1.405       .  A
C689        C694   1.404       .  A
C690        C691   1.405       .  A
C690       Br701   1.933       .  S
C691        C692   1.415       .  A
C691       Br697   1.924       .  S
C692        C693   1.423       .  A
C693        C694   1.404       .  A
C693       Br702   1.938       .  S
C694       Br698   1.933       .  S
C703        C704   1.422       .  A
C703        C708   1.418       .  A
C704        C705   1.409       .  A
C704       Br716   1.935       .  S
C705        C706   1.406       .  A
C705       Br720   1.930       .  S
C706        C709   1.486       .  S
C706        C707   1.405       .  A
C707        C708   1.407       .  A
C707       Br715   1.934       .  S
C708       Br719   1.925       .  S
C709        C710   1.399       .  A
C709        C714   1.400       .  A
C710        C711   1.412       .  A
C710       Br721   1.938   1_565  S
C711        C712   1.436       .  A
C711       Br717   1.923   1_565  S
C712        C713   1.429       .  A
C713        C714   1.408       .  A
C713       Br722   1.919       .  S
C714       Br718   1.935       .  S
C723        C724   1.418       .  A
C723        C728   1.409       .  A
C724        C725   1.405       .  A
C724       Br736   1.936       .  S
C725        C726   1.406       .  A
C725       Br740   1.931       .  S
C726        C729   1.477   1_565  S
C726        C727   1.407       .  A
C727        C728   1.403       .  A
C727       Br735   1.933   1_565  S
C728       Br739   1.923       .  S
C729        C730   1.404       .  A
C729        C734   1.404       .  A
C730        C731   1.404       .  A
C730       Br741   1.935   1_545  S
C731        C732   1.422       .  A
C731       Br737   1.937       .  S
C732        C733   1.422       .  A
C733        C734   1.406       .  A
C733       Br742   1.935       .  S
C734       Br738   1.932       .  S
C743        C744   1.409       .  A
C743        C748   1.409       .  A
C744        C745   1.406       .  A
C744       Br756   1.929       .  S
C745        C746   1.410       .  A
C745       Br760   1.932       .  S
C746        C749   1.484       .  S
C746        C747   1.409       .  A
C747        C748   1.408       .  A
C747       Br755   1.928       .  S
C748       Br759   1.929       .  S
C749        C750   1.402       .  A
C749        C754   1.402       .  A
C750        C751   1.410       .  A
C750       Br761   1.933       .  S
C751        C752   1.423       .  A
C751       Br757   1.922       .  S
C752        C753   1.426       .  A
C753        C754   1.409       .  A
C753       Br762   1.918       .  S
C754       Br758   1.937       .  S
C763        C764   1.437       .  A
C763        C768   1.430       .  A
C764        C765   1.407       .  A
C764       Br776   1.940   1_545  S
C765        C766   1.399       .  A
C765       Br780   1.936       .  S
C766        C769   1.485       .  S
C766        C767   1.401       .  A
C767        C768   1.410       .  A
C767       Br775   1.933       .  S
C768       Br779   1.925   1_655  S
C769        C770   1.400       .  A
C769        C774   1.404       .  A
C770        C771   1.409       .  A
C770       Br781   1.930       .  S
C771        C772   1.424       .  A
C771       Br777   1.923       .  S
C772        C773   1.427       .  A
C773        C774   1.409       .  A
C773       Br782   1.925       .  S
C774       Br778   1.939       .  S
C783        C784   1.407       .  A
C783        C788   1.409       .  A
C784        C785   1.401       .  A
C784       Br796   1.932       .  S
C785        C786   1.407       .  A
C785       Br800   1.929   1_655  S
C786        C789   1.473       .  S
C786        C787   1.408       .  A
C787        C788   1.404       .  A
C787       Br795   1.928       .  S
C788       Br799   1.933       .  S
C789        C790   1.405   1_655  A
C789        C794   1.403   1_655  A
C790        C791   1.403       .  A
C790       Br801   1.934   1_455  S
C791        C792   1.419       .  A
C791       Br797   1.934       .  S
C792        C793   1.420       .  A
C793        C794   1.405       .  A
C793       Br802   1.935       .  S
C794       Br798   1.931       .  S
C803        C804   1.408       .  A
C803        C808   1.408       .  A
C804        C805   1.406       .  A
C804       Br816   1.929       .  S
C805        C806   1.409       .  A
C805       Br820   1.930   1_565  S
C806        C809   1.483   1_565  S
C806        C807   1.410       .  A
C807        C808   1.406       .  A
C807       Br815   1.929       .  S
C808       Br819   1.929       .  S
C809        C810   1.401       .  A
C809        C814   1.399       .  A
C810        C811   1.411       .  A
C810       Br821   1.934   1_545  S
C811        C812   1.426       .  A
C811       Br817   1.919       .  S
C812        C813   1.435       .  A
C813        C814   1.410       .  A
C813       Br822   1.924       .  S
C814       Br818   1.941       .  S
C823        C824   1.423       .  A
C823        C828   1.425       .  A
C824        C825   1.411       .  A
C824       Br836   1.909   1_655  S
C825        C826   1.402       .  A
C825       Br840   1.935       .  S
C826        C829   1.487       .  S
C826        C827   1.401       .  A
C827        C828   1.409       .  A
C827       Br835   1.936       .  S
C828       Br839   1.912       .  S
C829        C830   1.407       .  A
C829        C834   1.405       .  A
C830        C831   1.408       .  A
C830       Br841   1.930       .  S
C831        C832   1.424       .  A
C831       Br837   1.940       .  S
C832        C833   1.418       .  A
C833        C834   1.408       .  A
C833       Br842   1.925       .  S
C834       Br838   1.933       .  S
C843        C844   1.409       .  A
C843        C848   1.410       .  A
C844        C845   1.405       .  A
C844       Br856   1.924       .  S
C845        C846   1.408       .  A
C845       Br860   1.931       .  S
C846        C849   1.487   1_455  S
C846        C847   1.410       .  A
C847        C848   1.411       .  A
C847       Br855   1.927   1_455  S
C848       Br859   1.927       .  S
C849        C850   1.403       .  A
C849        C854   1.403       .  A
C850        C851   1.410       .  A
C850       Br861   1.936       .  S
C851        C852   1.422       .  A
C851       Br857   1.915       .  S
C852        C853   1.422       .  A
C853        C854   1.411       .  A
C853       Br862   1.920       .  S
C854       Br858   1.932   1_655  S
C863        C864   1.421       .  A
C863        C868   1.419       .  A
C864        C865   1.408       .  A
C864       Br876   1.935       .  S
C865        C866   1.408       .  A
C865       Br880   1.934       .  S
C866        C869   1.485       .  S
C866        C867   1.407       .  A
C867        C868   1.407       .  A
C867       Br875   1.932       .  S
C868       Br879   1.934       .  S
C869        C870   1.406       .  A
C869        C874   1.408       .  A
C870        C871   1.405       .  A
C870       Br881   1.936       .  S
C871        C872   1.414       .  A
C871       Br877   1.917       .  S
C872        C873   1.419       .  A
C873        C874   1.410       .  A
C873       Br882   1.935       .  S
C874       Br878   1.931       .  S
C883        C884   1.424       .  A
C883        C888   1.437       .  A
C884        C885   1.409       .  A
C884       Br896   1.919       .  S
C885        C886   1.402       .  A
C885       Br900   1.934       .  S
C886        C889   1.494       .  S
C886        C887   1.403       .  A
C887        C888   1.417       .  A
C887       Br895   1.938       .  S
C888       Br899   1.927       .  S
C889        C890   1.402       .  A
C889        C894   1.403       .  A
C890        C891   1.411       .  A
C890       Br901   1.939       .  S
C891        C892   1.428       .  A
C891       Br897   1.911       .  S
C892        C893   1.421       .  A
C893        C894   1.414       .  A
C893       Br902   1.907   1_545  S
C894       Br898   1.932       .  S
C903        C904   1.409       .  A
C903        C908   1.409       .  A
C904        C905   1.403       .  A
C904       Br916   1.927       .  S
C905        C906   1.407       .  A
C905       Br920   1.931       .  S
C906        C909   1.474   1_545  S
C906        C907   1.407       .  A
C907        C908   1.404       .  A
C907       Br915   1.928   1_545  S
C908       Br919   1.932       .  S
C909        C910   1.401       .  A
C909        C914   1.402       .  A
C910        C911   1.406       .  A
C910       Br921   1.934       .  S
C911        C912   1.427       .  A
C911       Br917   1.938       .  S
C912        C913   1.426       .  A
C913        C914   1.405       .  A
C913       Br922   1.938       .  S
C914       Br918   1.936   1_565  S
C923        C924   1.421       .  A
C923        C928   1.424       .  A
C924        C925   1.409       .  A
C924       Br936   1.922       .  S
C925        C926   1.404       .  A
C925       Br940   1.935       .  S
C926        C929   1.487       .  S
C926        C927   1.405       .  A
C927        C928   1.411       .  A
C927       Br935   1.932       .  S
C928       Br939   1.931       .  S
C929        C930   1.409       .  A
C929        C934   1.408       .  A
C930        C931   1.408       .  A
C930       Br941   1.931       .  S
C931        C932   1.411       .  A
C931       Br937   1.922       .  S
C932        C933   1.413       .  A
C933        C934   1.409       .  A
C933       Br942   1.929       .  S
C934       Br938   1.929       .  S
C943        C944   1.423       .  A
C943        C948   1.431       .  A
C944        C945   1.405       .  A
C944       Br956   1.919       .  S
C945        C946   1.403       .  A
C945       Br960   1.936       .  S
C946        C949   1.488       .  S
C946        C947   1.403       .  A
C947        C948   1.414       .  A
C947       Br955   1.930       .  S
C948       Br959   1.933       .  S
C949        C950   1.402       .  A
C949        C954   1.402       .  A
C950        C951   1.405       .  A
C950       Br961   1.931       .  S
C951        C952   1.424       .  A
C951       Br957   1.931       .  S
C952        C953   1.430       .  A
C953        C954   1.414       .  A
C953       Br962   1.917       .  S
C954       Br958   1.934       .  S
C963        C964   1.428       .  A
C963        C968   1.423       .  A
C964        C965   1.416       .  A
C964       Br976   1.933       .  S
C965        C966   1.407       .  A
C965       Br980   1.931       .  S
C966        C969   1.492       .  S
C966        C967   1.402       .  A
C967        C968   1.406       .  A
C967       Br975   1.932       .  S
C968       Br979   1.923       .  S
C969        C970   1.400       .  A
C969        C974   1.403       .  A
C970        C971   1.413       .  A
C970       Br981   1.936       .  S
C971        C972   1.430       .  A
C971       Br977   1.913       .  S
C972        C973   1.425       .  A
C973        C974   1.412       .  A
C973       Br982   1.914       .  S
C974       Br978   1.935       .  S
C983        C984   1.413       .  A
C983        C988   1.400       .  A
C984        C985   1.415       .  A
C984       Br996   1.920       .  S
C985        C986   1.414       .  A
C985      Br1000   1.929       .  S
C986        C989   1.493       .  S
C986        C987   1.411       .  A
C987        C988   1.397       .  A
C987       Br995   1.929       .  S
C988       Br999   1.917       .  S
C989        C990   1.407       .  A
C989        C994   1.403       .  A
C990        C991   1.414       .  A
C990      Br1001   1.935       .  S
C991        C992   1.431       .  A
C991       Br997   1.923       .  S
C992        C993   1.427       .  A
C993        C994   1.403       .  A
C993      Br1002   1.929       .  S
C994       Br998   1.932       .  S
C1003      C1004   1.427       .  A
C1003      C1008   1.430       .  A
C1004      C1005   1.413       .  A
C1004     Br1016   1.929       .  S
C1005      C1006   1.408       .  A
C1005     Br1020   1.923       .  S
C1006      C1009   1.499       .  S
C1006      C1007   1.404       .  A
C1007      C1008   1.410       .  A
C1007     Br1015   1.933       .  S
C1008     Br1019   1.929       .  S
C1009      C1010   1.403       .  A
C1009      C1014   1.407       .  A
C1010      C1011   1.413       .  A
C1010     Br1021   1.935       .  S
C1011      C1012   1.436       .  A
C1011     Br1017   1.933       .  S
C1012      C1013   1.428       .  A
C1013      C1014   1.418       .  A
C1013     Br1022   1.921       .  S
C1014     Br1018   1.932       .  S
C1023      C1024   1.424       .  A
C1023      C1028   1.426       .  A
C1024      C1025   1.409       .  A
C1024     Br1036   1.929       .  S
C1025      C1026   1.409       .  A
C1025     Br1040   1.933       .  S
C1026      C1029   1.507       .  S
C1026      C1027   1.411       .  A
C1027      C1028   1.411       .  A
C1027     Br1035   1.925       .  S
C1028     Br1039   1.934       .  S
C1029      C1030   1.408       .  A
C1029      C1034   1.409       .  A
C1030      C1031   1.411       .  A
C1030     Br1041   1.936       .  S
C1031      C1032   1.428       .  A
C1031     Br1037   1.920       .  S
C1032      C1033   1.427       .  A
C1033      C1034   1.415       .  A
C1033     Br1042   1.916       .  S
C1034     Br1038   1.935       .  S
C1043      C1044   1.410       .  A
C1043      C1048   1.413       .  A
C1044      C1045   1.407       .  A
C1044     Br1056   1.926       .  S
C1045      C1046   1.408       .  A
C1045     Br1060   1.929       .  S
C1046      C1049   1.478       .  S
C1046      C1047   1.406       .  A
C1047      C1048   1.403       .  A
C1047     Br1055   1.933       .  S
C1048     Br1059   1.929   1_565  S
C1049      C1050   1.401       .  A
C1049      C1054   1.403       .  A
C1050      C1051   1.406       .  A
C1050     Br1061   1.936       .  S
C1051      C1052   1.429       .  A
C1051     Br1057   1.938       .  S
C1052      C1053   1.429       .  A
C1053      C1054   1.409       .  A
C1053     Br1062   1.935       .  S
C1054     Br1058   1.935       .  S
C1063      C1064   1.409       .  A
C1063      C1068   1.407       .  A
C1064      C1065   1.408       .  A
C1064     Br1076   1.926       .  S
C1065      C1066   1.409       .  A
C1065     Br1080   1.929       .  S
C1066      C1069   1.485       .  S
C1066      C1067   1.411       .  A
C1067      C1068   1.405       .  A
C1067     Br1075   1.931       .  S
C1068     Br1079   1.927       .  S
C1069      C1070   1.406       .  A
C1069      C1074   1.403       .  A
C1070      C1071   1.411       .  A
C1070     Br1081   1.934       .  S
C1071      C1072   1.420       .  A
C1071     Br1077   1.920       .  S
C1072      C1073   1.420       .  A
C1073      C1074   1.405       .  A
C1073     Br1082   1.921       .  S
C1074     Br1078   1.934       .  S
C1083      C1084   1.422       .  A
C1083      C1088   1.430       .  A
C1084      C1085   1.410       .  A
C1084     Br1096   1.922       .  S
C1085      C1086   1.405       .  A
C1085     Br1100   1.929       .  S
C1086      C1089   1.484       .  S
C1086      C1087   1.401       .  A
C1087      C1088   1.405       .  A
C1087     Br1095   1.934       .  S
C1088     Br1099   1.935       .  S
C1089      C1090   1.401       .  A
C1089      C1094   1.403       .  A
C1090      C1091   1.408       .  A
C1090     Br1101   1.933       .  S
C1091      C1092   1.422       .  A
C1091     Br1097   1.917       .  S
C1092      C1093   1.420       .  A
C1093      C1094   1.409       .  A
C1093     Br1102   1.912       .  S
C1094     Br1098   1.936       .  S
C1103      C1104   1.432       .  A
C1103      C1108   1.423       .  A
C1104      C1105   1.413       .  A
C1104     Br1116   1.924       .  S
C1105      C1106   1.402       .  A
C1105     Br1120   1.937       .  S
C1106      C1109   1.490       .  S
C1106      C1107   1.402       .  A
C1107      C1108   1.410       .  A
C1107     Br1115   1.933       .  S
C1108     Br1119   1.921       .  S
C1109      C1110   1.399       .  A
C1109      C1114   1.403       .  A
C1110      C1111   1.408       .  A
C1110     Br1121   1.936       .  S
C1111      C1112   1.425       .  A
C1111     Br1117   1.909       .  S
C1112      C1113   1.431       .  A
C1113      C1114   1.415       .  A
C1113     Br1122   1.921       .  S
C1114     Br1118   1.934       .  S
C1123      C1124   1.424       .  A
C1123      C1128   1.425       .  A
C1124      C1125   1.405       .  A
C1124     Br1136   1.925       .  S
C1125      C1126   1.402       .  A
C1125     Br1140   1.937       .  S
C1126      C1129   1.476       .  S
C1126      C1127   1.402       .  A
C1127      C1128   1.406       .  A
C1127     Br1135   1.934       .  S
C1128     Br1139   1.933       .  S
C1129      C1130   1.406       .  A
C1129      C1134   1.408       .  A
C1130      C1131   1.399       .  A
C1130     Br1141   1.935       .  S
C1131      C1132   1.409       .  A
C1131     Br1137   1.925       .  S
C1132      C1133   1.414       .  A
C1133      C1134   1.408       .  A
C1133     Br1142   1.930       .  S
C1134     Br1138   1.929       .  S
C1143      C1144   1.408       .  A
C1143      C1148   1.410       .  A
C1144      C1145   1.403       .  A
C1144     Br1156   1.929       .  S
C1145      C1146   1.408       .  A
C1145     Br1160   1.930       .  S
C1146      C1149   1.477       .  S
C1146      C1147   1.408       .  A
C1147      C1148   1.405       .  A
C1147     Br1155   1.928       .  S
C1148     Br1159   1.933       .  S
C1149      C1150   1.407       .  A
C1149      C1154   1.406       .  A
C1150      C1151   1.407       .  A
C1150     Br1161   1.929       .  S
C1151      C1152   1.413       .  A
C1151     Br1157   1.931       .  S
C1152      C1153   1.412       .  A
C1153      C1154   1.402       .  A
C1153     Br1162   1.927       .  S
C1154     Br1158   1.933       .  S
C1163      C1164   1.425       .  A
C1163      C1168   1.421       .  A
C1164      C1165   1.415       .  A
C1164     Br1176   1.926       .  S
C1165      C1166   1.407       .  A
C1165     Br1180   1.932       .  S
C1166      C1169   1.497       .  S
C1166      C1167   1.404       .  A
C1167      C1168   1.412       .  A
C1167     Br1175   1.931       .  S
C1168     Br1179   1.919       .  S
C1169      C1170   1.404       .  A
C1169      C1174   1.408       .  A
C1170      C1171   1.410       .  A
C1170     Br1181   1.931       .  S
C1171      C1172   1.422       .  A
C1171     Br1177   1.918       .  S
C1172      C1173   1.425       .  A
C1173      C1174   1.416       .  A
C1173     Br1182   1.932       .  S
C1174     Br1178   1.927       .  S
C1183      C1184   1.421       .  A
C1183      C1188   1.416       .  A
C1184      C1185   1.414       .  A
C1184     Br1196   1.907       .  S
C1185      C1186   1.407       .  A
C1185     Br1200   1.935       .  S
C1186      C1189   1.496       .  S
C1186      C1187   1.405       .  A
C1187      C1188   1.410       .  A
C1187     Br1195   1.933       .  S
C1188     Br1199   1.905       .  S
C1189      C1190   1.406       .  A
C1189      C1194   1.405       .  A
C1190      C1191   1.409       .  A
C1190     Br1201   1.928       .  S
C1191      C1192   1.425       .  A
C1191     Br1197   1.936       .  S
C1192      C1193   1.430       .  A
C1193      C1194   1.413       .  A
C1193     Br1202   1.925       .  S
C1194     Br1198   1.938       .  S
C1203      C1204   1.417       .  A
C1203      C1208   1.412       .  A
C1204      C1205   1.407       .  A
C1204     Br1216   1.930       .  S
C1205      C1206   1.406       .  A
C1205     Br1220   1.931       .  S
C1206      C1209   1.482       .  S
C1206      C1207   1.407       .  A
C1207      C1208   1.406       .  A
C1207     Br1215   1.933       .  S
C1208     Br1219   1.920       .  S
C1209      C1210   1.407       .  A
C1209      C1214   1.407       .  A
C1210      C1211   1.405       .  A
C1210     Br1221   1.933       .  S
C1211      C1212   1.416       .  A
C1211     Br1217   1.934       .  S
C1212      C1213   1.418       .  A
C1213      C1214   1.407       .  A
C1213     Br1222   1.933       .  S
C1214     Br1218   1.932       .  S
C1223      C1224   1.418       .  A
C1223      C1228   1.416       .  A
C1224      C1225   1.409       .  A
C1224     Br1236   1.920   1_455  S
C1225      C1226   1.405       .  A
C1225     Br1240   1.933       .  S
C1226      C1229   1.489       .  S
C1226      C1227   1.406       .  A
C1227      C1228   1.410       .  A
C1227     Br1235   1.930       .  S
C1228     Br1239   1.924       .  S
C1229      C1230   1.404       .  A
C1229      C1234   1.405       .  A
C1230      C1231   1.412       .  A
C1230     Br1241   1.932       .  S
C1231      C1232   1.427       .  A
C1231     Br1237   1.935       .  S
C1232      C1233   1.428       .  A
C1233      C1234   1.410       .  A
C1233     Br1242   1.936       .  S
C1234     Br1238   1.936       .  S
C1243      C1244   1.422       .  A
C1243      C1248   1.427       .  A
C1244      C1245   1.405       .  A
C1244     Br1256   1.920       .  S
C1245      C1246   1.406       .  A
C1245     Br1260   1.936       .  S
C1246      C1249   1.492       .  S
C1246      C1247   1.405       .  A
C1247      C1248   1.413       .  A
C1247     Br1255   1.933       .  S
C1248     Br1259   1.924       .  S
C1249      C1250   1.408       .  A
C1249      C1254   1.402       .  A
C1250      C1251   1.415       .  A
C1250     Br1261   1.934       .  S
C1251      C1252   1.424       .  A
C1251     Br1257   1.914       .  S
C1252      C1253   1.429       .  A
C1253      C1254   1.401       .  A
C1253     Br1262   1.938       .  S
C1254     Br1258   1.933       .  S
C1263      C1264   1.423       .  A
C1263      C1268   1.429       .  A
C1264      C1265   1.407       .  A
C1264     Br1276   1.922       .  S
C1265      C1266   1.405       .  A
C1265     Br1280   1.934       .  S
C1266      C1269   1.491       .  S
C1266      C1267   1.403       .  A
C1267      C1268   1.412       .  A
C1267     Br1275   1.934       .  S
C1268     Br1279   1.923       .  S
C1269      C1270   1.406       .  A
C1269      C1274   1.403       .  A
C1270      C1271   1.412       .  A
C1270     Br1281   1.935       .  S
C1271      C1272   1.426       .  A
C1271     Br1277   1.922       .  S
C1272      C1273   1.428       .  A
C1273      C1274   1.405       .  A
C1273     Br1282   1.937       .  S
C1274     Br1278   1.932       .  S
C1283      C1284   1.421       .  A
C1283      C1288   1.430       .  A
C1284      C1285   1.409       .  A
C1284     Br1296   1.918       .  S
C1285      C1286   1.404       .  A
C1285     Br1300   1.930       .  S
C1286      C1289   1.484       .  S
C1286      C1287   1.401       .  A
C1287      C1288   1.407       .  A
C1287     Br1295   1.933       .  S
C1288     Br1299   1.932       .  S
C1289      C1290   1.401       .  A
C1289      C1294   1.404       .  A
C1290      C1291   1.407       .  A
C1290     Br1301   1.933       .  S
C1291      C1292   1.422       .  A
C1291     Br1297   1.917       .  S
C1292      C1293   1.423       .  A
C1293      C1294   1.409       .  A
C1293     Br1302   1.922       .  S
C1294     Br1298   1.935       .  S
C1303      C1304   1.438       .  A
C1303      C1308   1.431       .  A
C1304      C1305   1.415       .  A
C1304     Br1316   1.933       .  S
C1305      C1306   1.403       .  A
C1305     Br1320   1.937       .  S
C1306      C1309   1.501       .  S
C1306      C1307   1.404       .  A
C1307      C1308   1.415       .  A
C1307     Br1315   1.935       .  S
C1308     Br1319   1.919       .  S
C1309      C1310   1.406       .  A
C1309      C1314   1.406       .  A
C1310      C1311   1.415       .  A
C1310     Br1321   1.933       .  S
C1311      C1312   1.430       .  A
C1311     Br1317   1.929   1_655  S
C1312      C1313   1.425       .  A
C1313      C1314   1.412       .  A
C1313     Br1322   1.916   1_545  S
C1314     Br1318   1.934       .  S
C1323      C1324   1.417       .  A
C1323      C1328   1.420       .  A
C1324      C1325   1.409       .  A
C1324     Br1336   1.923       .  S
C1325      C1326   1.405       .  A
C1325     Br1340   1.932       .  S
C1326      C1329   1.485       .  S
C1326      C1327   1.404       .  A
C1327      C1328   1.408       .  A
C1327     Br1335   1.930       .  S
C1328     Br1339   1.923       .  S
C1329      C1330   1.402       .  A
C1329      C1334   1.401       .  A
C1330      C1331   1.410       .  A
C1330     Br1341   1.935       .  S
C1331      C1332   1.428       .  A
C1331     Br1337   1.923       .  S
C1332      C1333   1.426       .  A
C1333      C1334   1.408       .  A
C1333     Br1342   1.921       .  S
C1334     Br1338   1.934       .  S
C1343      C1344   1.411       .  A
C1343      C1348   1.417       .  A
C1344      C1345   1.407       .  A
C1344     Br1356   1.921       .  S
C1345      C1346   1.409       .  A
C1345     Br1360   1.932       .  S
C1346      C1349   1.488       .  S
C1346      C1347   1.409       .  A
C1347      C1348   1.410       .  A
C1347     Br1355   1.931       .  S
C1348     Br1359   1.933       .  S
C1349      C1350   1.408       .  A
C1349      C1354   1.408       .  A
C1350      C1351   1.406       .  A
C1350     Br1361   1.933       .  S
C1351      C1352   1.417       .  A
C1351     Br1357   1.934       .  S
C1352      C1353   1.419       .  A
C1353      C1354   1.410       .  A
C1353     Br1362   1.933   1_655  S
C1354     Br1358   1.931   1_655  S
C1363      C1364   1.427       .  A
C1363      C1368   1.431       .  A
C1364      C1365   1.410       .  A
C1364     Br1376   1.922       .  S
C1365      C1366   1.404       .  A
C1365     Br1380   1.935       .  S
C1366      C1369   1.496       .  S
C1366      C1367   1.404       .  A
C1367      C1368   1.415       .  A
C1367     Br1375   1.926       .  S
C1368     Br1379   1.932       .  S
C1369      C1370   1.406       .  A
C1369      C1374   1.403       .  A
C1370      C1371   1.414       .  A
C1370     Br1381   1.932       .  S
C1371      C1372   1.429       .  A
C1371     Br1377   1.932       .  S
C1372      C1373   1.419       .  A
C1373      C1374   1.412       .  A
C1373     Br1382   1.910       .  S
C1374     Br1378   1.927       .  S
C1383      C1384   1.419       .  A
C1383      C1388   1.415       .  A
C1384      C1385   1.408       .  A
C1384     Br1396   1.935       .  S
C1385      C1386   1.407       .  A
C1385     Br1400   1.926       .  S
C1386      C1389   1.488       .  S
C1386      C1387   1.407       .  A
C1387      C1388   1.408       .  A
C1387     Br1395   1.932       .  S
C1388     Br1399   1.925       .  S
C1389      C1390   1.402       .  A
C1389      C1394   1.404       .  A
C1390      C1391   1.409       .  A
C1390     Br1401   1.935       .  S
C1391      C1392   1.427       .  A
C1391     Br1397   1.920       .  S
C1392      C1393   1.425       .  A
C1393      C1394   1.411       .  A
C1393     Br1402   1.924       .  S
C1394     Br1398   1.933       .  S
C1403      C1404   1.419       .  A
C1403      C1408   1.421       .  A
C1404      C1405   1.407       .  A
C1404     Br1416   1.934       .  S
C1405      C1406   1.409       .  A
C1405     Br1420   1.934       .  S
C1406      C1409   1.493       .  S
C1406      C1407   1.409       .  A
C1407      C1408   1.412       .  A
C1407     Br1415   1.931       .  S
C1408     Br1419   1.933       .  S
C1409      C1410   1.409       .  A
C1409      C1414   1.407       .  A
C1410      C1411   1.413       .  A
C1410     Br1421   1.933       .  S
C1411      C1412   1.418       .  A
C1411     Br1417   1.918       .  S
C1412      C1413   1.417       .  A
C1413      C1414   1.406       .  A
C1413     Br1422   1.925       .  S
C1414     Br1418   1.933       .  S
C1423      C1424   1.410       .  A
C1423      C1428   1.410       .  A
C1424      C1425   1.411       .  A
C1424     Br1436   1.930       .  S
C1425      C1426   1.413       .  A
C1425     Br1440   1.930       .  S
C1426      C1429   1.495       .  S
C1426      C1427   1.412       .  A
C1427      C1428   1.410       .  A
C1427     Br1435   1.930       .  S
C1428     Br1439   1.929       .  S
C1429      C1430   1.407       .  A
C1429      C1434   1.407       .  A
C1430      C1431   1.411       .  A
C1430     Br1441   1.934       .  S
C1431      C1432   1.421       .  A
C1431     Br1437   1.924       .  S
C1432      C1433   1.423       .  A
C1433      C1434   1.413       .  A
C1433     Br1442   1.926       .  S
C1434     Br1438   1.932       .  S
C1443      C1444   1.430       .  A
C1443      C1448   1.423       .  A
C1444      C1445   1.415       .  A
C1444     Br1456   1.935       .  S
C1445      C1446   1.406       .  A
C1445     Br1460   1.932       .  S
C1446      C1449   1.498       .  S
C1446      C1447   1.405       .  A
C1447      C1448   1.412       .  A
C1447     Br1455   1.932       .  S
C1448     Br1459   1.922       .  S
C1449      C1450   1.403       .  A
C1449      C1454   1.405       .  A
C1450      C1451   1.414       .  A
C1450     Br1461   1.932       .  S
C1451      C1452   1.423       .  A
C1451     Br1457   1.912       .  S
C1452      C1453   1.422       .  A
C1453      C1454   1.413       .  A
C1453     Br1462   1.907   1_545  S
C1454     Br1458   1.935   1_545  S
C1463      C1464   1.427       .  A
C1463      C1468   1.427       .  A
C1464      C1465   1.413       .  A
C1464     Br1476   1.918       .  S
C1465      C1466   1.402       .  A
C1465     Br1480   1.935       .  S
C1466      C1469   1.495       .  S
C1466      C1467   1.403       .  A
C1467      C1468   1.413       .  A
C1467     Br1475   1.933       .  S
C1468     Br1479   1.918       .  S
C1469      C1470   1.404       .  A
C1469      C1474   1.404       .  A
C1470      C1471   1.413       .  A
C1470     Br1481   1.934       .  S
C1471      C1472   1.425       .  A
C1471     Br1477   1.921       .  S
C1472      C1473   1.424       .  A
C1473      C1474   1.412       .  A
C1473     Br1482   1.919       .  S
C1474     Br1478   1.933       .  S
C1483      C1484   1.417       .  A
C1483      C1488   1.423       .  A
C1484      C1485   1.410       .  A
C1484     Br1496   1.919       .  S
C1485      C1486   1.406       .  A
C1485     Br1500   1.933       .  S
C1486      C1489   1.494       .  S
C1486      C1487   1.408       .  A
C1487      C1488   1.413       .  A
C1487     Br1495   1.930       .  S
C1488     Br1499   1.935       .  S
C1489      C1490   1.411       .  A
C1489      C1494   1.410       .  A
C1490      C1491   1.411       .  A
C1490     Br1501   1.930       .  S
C1491      C1492   1.412       .  A
C1491     Br1497   1.930       .  S
C1492      C1493   1.412       .  A
C1493      C1494   1.412       .  A
C1493     Br1502   1.927       .  S
C1494     Br1498   1.929       .  S
C1503      C1504   1.430       .  A
C1503      C1508   1.423       .  A
C1504      C1505   1.415       .  A
C1504     Br1516   1.922       .  S
C1505      C1506   1.405       .  A
C1505     Br1520   1.935       .  S
C1506      C1509   1.495       .  S
C1506      C1507   1.404       .  A
C1507      C1508   1.409       .  A
C1507     Br1515   1.933       .  S
C1508     Br1519   1.923       .  S
C1509      C1510   1.411       .  A
C1509      C1514   1.413       .  A
C1510      C1511   1.408       .  A
C1510     Br1521   1.931       .  S
C1511      C1512   1.410       .  A
C1511     Br1517   1.931       .  S
C1512      C1513   1.412       .  A
C1513      C1514   1.413       .  A
C1513     Br1522   1.929   1_554  S
C1514     Br1518   1.929       .  S
C1523      C1524   1.421       .  A
C1523      C1528   1.421       .  A
C1524      C1525   1.409       .  A
C1524     Br1536   1.934   1_545  S
C1525      C1526   1.407       .  A
C1525     Br1540   1.932   1_545  S
C1526      C1529   1.490       .  S
C1526      C1527   1.408       .  A
C1527      C1528   1.410       .  A
C1527     Br1535   1.932       .  S
C1528     Br1539   1.934       .  S
C1529      C1530   1.409       .  A
C1529      C1534   1.408       .  A
C1530      C1531   1.410       .  A
C1530     Br1541   1.931       .  S
C1531      C1532   1.418       .  A
C1531     Br1537   1.934       .  S
C1532      C1533   1.413       .  A
C1533      C1534   1.409       .  A
C1533     Br1542   1.924       .  S
C1534     Br1538   1.932       .  S
C1543      C1544   1.429       .  A
C1543      C1548   1.422       .  A
C1544      C1545   1.413       .  A
C1544     Br1556   1.926       .  S
C1545      C1546   1.405       .  A
C1545     Br1560   1.933       .  S
C1546      C1549   1.488       .  S
C1546      C1547   1.405       .  A
C1547      C1548   1.403       .  A
C1547     Br1555   1.936       .  S
C1548     Br1559   1.923       .  S
C1549      C1550   1.409       .  A
C1549      C1554   1.405       .  A
C1550      C1551   1.409       .  A
C1550     Br1561   1.930       .  S
C1551      C1552   1.418       .  A
C1551     Br1557   1.923       .  S
C1552      C1553   1.424       .  A
C1553      C1554   1.403       .  A
C1553     Br1562   1.938       .  S
C1554     Br1558   1.932       .  S
C1563      C1564   1.417       .  A
C1563      C1568   1.426       .  A
C1564      C1565   1.402       .  A
C1564     Br1576   1.920       .  S
C1565      C1566   1.408       .  A
C1565     Br1580   1.935       .  S
C1566      C1569   1.493       .  S
C1566      C1567   1.408       .  A
C1567      C1568   1.416       .  A
C1567     Br1575   1.931       .  S
C1568     Br1579   1.925       .  S
C1569      C1570   1.405       .  A
C1569      C1574   1.410       .  A
C1570      C1571   1.403       .  A
C1570     Br1581   1.932       .  S
C1571      C1572   1.426       .  A
C1571     Br1577   1.937       .  S
C1572      C1573   1.422       .  A
C1573      C1574   1.412       .  A
C1573     Br1582   1.925       .  S
C1574     Br1578   1.929       .  S
C1583      C1584   1.423       .  A
C1583      C1588   1.420       .  A
C1584      C1585   1.415       .  A
C1584     Br1596   1.923       .  S
C1585      C1586   1.408       .  A
C1585     Br1600   1.932       .  S
C1586      C1589   1.501       .  S
C1586      C1587   1.408       .  A
C1587      C1588   1.411       .  A
C1587     Br1595   1.936       .  S
C1588     Br1599   1.914       .  S
C1589      C1590   1.406       .  A
C1589      C1594   1.409       .  A
C1590      C1591   1.406       .  A
C1590     Br1601   1.933       .  S
C1591      C1592   1.424       .  A
C1591     Br1597   1.926       .  S
C1592      C1593   1.431       .  A
C1593      C1594   1.418       .  A
C1593     Br1602   1.929       .  S
C1594     Br1598   1.934       .  S
C1603      C1604   1.410       .  A
C1603      C1608   1.399       .  A
C1604      C1605   1.416       .  A
C1604     Br1616   1.915   1_455  S
C1605      C1606   1.414       .  A
C1605     Br1620   1.924       .  S
C1606      C1609   1.491       .  S
C1606      C1607   1.412       .  A
C1607      C1608   1.402       .  A
C1607     Br1615   1.921       .  S
C1608     Br1619   1.933       .  S
C1609      C1610   1.401       .  A
C1609      C1614   1.405       .  A
C1610      C1611   1.410       .  A
C1610     Br1621   1.922       .  S
C1611      C1612   1.424       .  A
C1611     Br1617   1.925       .  S
C1612      C1613   1.430       .  A
C1613      C1614   1.413       .  A
C1613     Br1622   1.934       .  S
C1614     Br1618   1.932       .  S
C1623      C1624   1.423       .  A
C1623      C1628   1.422       .  A
C1624      C1625   1.413       .  A
C1624     Br1636   1.921       .  S
C1625      C1626   1.406       .  A
C1625     Br1640   1.934       .  S
C1626      C1629   1.492       .  S
C1626      C1627   1.404       .  A
C1627      C1628   1.410       .  A
C1627     Br1635   1.933       .  S
C1628     Br1639   1.920       .  S
C1629      C1630   1.402       .  A
C1629      C1634   1.403       .  A
C1630      C1631   1.412       .  A
C1630     Br1641   1.933       .  S
C1631      C1632   1.427       .  A
C1631     Br1637   1.916       .  S
C1632      C1633   1.428       .  A
C1633      C1634   1.411       .  A
C1633     Br1642   1.922       .  S
C1634     Br1638   1.935       .  S
C1643      C1644   1.411       .  A
C1643      C1648   1.410       .  A
C1644      C1645   1.410       .  A
C1644     Br1656   1.928       .  S
C1645      C1646   1.411       .  A
C1645     Br1660   1.929       .  S
C1646      C1649   1.487       .  S
C1646      C1647   1.409       .  A
C1647      C1648   1.405       .  A
C1647     Br1655   1.932       .  S
C1648     Br1659   1.930       .  S
C1649      C1650   1.403       .  A
C1649      C1654   1.404       .  A
C1650      C1651   1.410       .  A
C1650     Br1661   1.934       .  S
C1651      C1652   1.427       .  A
C1651     Br1657   1.931       .  S
C1652      C1653   1.429       .  A
C1653      C1654   1.410       .  A
C1653     Br1662   1.929       .  S
C1654     Br1658   1.937       .  S
C1663      C1664   1.411       .  A
C1663      C1668   1.413       .  A
C1664      C1665   1.410       .  A
C1664     Br1676   1.929   1_455  S
C1665      C1666   1.410       .  A
C1665     Br1680   1.929       .  S
C1666      C1669   1.487       .  S
C1666      C1667   1.408       .  A
C1667      C1668   1.408       .  A
C1667     Br1675   1.931       .  S
C1668     Br1679   1.931       .  S
C1669      C1670   1.409       .  A
C1669      C1674   1.410       .  A
C1670      C1671   1.407       .  A
C1670     Br1681   1.929       .  S
C1671      C1672   1.410       .  A
C1671     Br1677   1.931       .  S
C1672      C1673   1.411       .  A
C1673      C1674   1.409       .  A
C1673     Br1682   1.932       .  S
C1674     Br1678   1.927       .  S
C1683      C1684   1.438       .  A
C1683      C1688   1.435       .  A
C1684      C1685   1.414       .  A
C1684     Br1696   1.921       .  S
C1685      C1686   1.401       .  A
C1685     Br1700   1.939       .  S
C1686      C1689   1.508       .  S
C1686      C1687   1.407       .  A
C1687      C1688   1.422       .  A
C1687     Br1695   1.931       .  S
C1688     Br1699   1.933       .  S
C1689      C1690   1.407       .  A
C1689      C1694   1.405       .  A
C1690      C1691   1.415       .  A
C1690     Br1701   1.935       .  S
C1691      C1692   1.431       .  A
C1691     Br1697   1.928   1_565  S
C1692      C1693   1.432       .  A
C1693      C1694   1.420       .  A
C1693     Br1702   1.923       .  S
C1694     Br1698   1.932       .  S
C1703      C1704   1.427       .  A
C1703      C1708   1.425       .  A
C1704      C1705   1.413       .  A
C1704     Br1716   1.926       .  S
C1705      C1706   1.408       .  A
C1705     Br1720   1.934       .  S
C1706      C1709   1.497       .  S
C1706      C1707   1.404       .  A
C1707      C1708   1.407       .  A
C1707     Br1715   1.933       .  S
C1708     Br1719   1.921       .  S
C1709      C1710   1.412       .  A
C1709      C1714   1.413       .  A
C1710      C1711   1.411       .  A
C1710     Br1721   1.932       .  S
C1711      C1712   1.410       .  A
C1711     Br1717   1.917       .  S
C1712      C1713   1.408       .  A
C1713      C1714   1.408       .  A
C1713     Br1722   1.930       .  S
C1714     Br1718   1.931       .  S
C1723      C1724   1.432       .  A
C1723      C1728   1.429       .  A
C1724      C1725   1.418       .  A
C1724     Br1736   1.924       .  S
C1725      C1726   1.406       .  A
C1725     Br1740   1.937       .  S
C1726      C1729   1.506       .  S
C1726      C1727   1.407       .  A
C1727      C1728   1.416       .  A
C1727     Br1735   1.932       .  S
C1728     Br1739   1.936       .  S
C1729      C1730   1.410       .  A
C1729      C1734   1.409       .  A
C1730      C1731   1.415       .  A
C1730     Br1741   1.933       .  S
C1731      C1732   1.425       .  A
C1731     Br1737   1.934   1_556  S
C1732      C1733   1.424       .  A
C1733      C1734   1.416       .  A
C1733     Br1742   1.933       .  S
C1734     Br1738   1.931       .  S
C1743      C1744   1.422       .  A
C1743      C1748   1.422       .  A
C1744      C1745   1.408       .  A
C1744     Br1756   1.918       .  S
C1745      C1746   1.404       .  A
C1745     Br1760   1.935       .  S
C1746      C1749   1.488       .  S
C1746      C1747   1.405       .  A
C1747      C1748   1.410       .  A
C1747     Br1755   1.934       .  S
C1748     Br1759   1.917       .  S
C1749      C1750   1.409       .  A
C1749      C1754   1.410       .  A
C1750      C1751   1.407       .  A
C1750     Br1761   1.931       .  S
C1751      C1752   1.413       .  A
C1751     Br1757   1.931   1_556  S
C1752      C1753   1.412       .  A
C1753      C1754   1.408       .  A
C1753     Br1762   1.930       .  S
C1754     Br1758   1.932       .  S
C1763      C1764   1.429       .  A
C1763      C1768   1.433       .  A
C1764      C1765   1.407       .  A
C1764     Br1776   1.927       .  S
C1765      C1766   1.403       .  A
C1765     Br1780   1.933       .  S
C1766      C1769   1.494       .  S
C1766      C1767   1.405       .  A
C1767      C1768   1.414       .  A
C1767     Br1775   1.935       .  S
C1768     Br1779   1.933       .  S
C1769      C1770   1.403       .  A
C1769      C1774   1.405       .  A
C1770      C1771   1.413       .  A
C1770     Br1781   1.937       .  S
C1771      C1772   1.424       .  A
C1771     Br1777   1.910   1_565  S
C1772      C1773   1.422       .  A
C1773      C1774   1.410       .  A
C1773     Br1782   1.913   1_455  S
C1774     Br1778   1.935       .  S
C1783      C1784   1.414       .  A
C1783      C1788   1.418       .  A
C1784      C1785   1.409       .  A
C1784     Br1796   1.922       .  S
C1785      C1786   1.408       .  A
C1785     Br1800   1.932       .  S
C1786      C1789   1.481       .  S
C1786      C1787   1.404       .  A
C1787      C1788   1.404       .  A
C1787     Br1795   1.933       .  S
C1788     Br1799   1.929       .  S
C1789      C1790   1.401       .  A
C1789      C1794   1.402       .  A
C1790      C1791   1.406       .  A
C1790     Br1801   1.935       .  S
C1791      C1792   1.422       .  A
C1791     Br1797   1.914       .  S
C1792      C1793   1.424       .  A
C1793      C1794   1.408       .  A
C1793     Br1802   1.918       .  S
C1794     Br1798   1.935       .  S
C1803      C1804   1.426       .  A
C1803      C1808   1.424       .  A
C1804      C1805   1.408       .  A
C1804     Br1816   1.926       .  S
C1805      C1806   1.402       .  A
C1805     Br1820   1.935       .  S
C1806      C1809   1.481       .  S
C1806      C1807   1.402       .  A
C1807      C1808   1.406       .  A
C1807     Br1815   1.936       .  S
C1808     Br1819   1.923       .  S
C1809      C1810   1.408       .  A
C1809      C1814   1.406       .  A
C1810      C1811   1.405       .  A
C1810     Br1821   1.932       .  S
C1811      C1812   1.415       .  A
C1811     Br1817   1.933       .  S
C1812      C1813   1.418       .  A
C1813      C1814   1.406       .  A
C1813     Br1822   1.934   1_455  S
C1814     Br1818   1.932       .  S
C1823      C1824   1.416       .  A
C1823      C1828   1.413       .  A
C1824      C1825   1.411       .  A
C1824     Br1836   1.933       .  S
C1825      C1826   1.409       .  A
C1825     Br1840   1.930       .  S
C1826      C1829   1.490       .  S
C1826      C1827   1.407       .  A
C1827      C1828   1.409       .  A
C1827     Br1835   1.930       .  S
C1828     Br1839   1.923       .  S
C1829      C1830   1.411       .  A
C1829      C1834   1.409       .  A
C1830      C1831   1.410       .  A
C1830     Br1841   1.929       .  S
C1831      C1832   1.410       .  A
C1831     Br1837   1.928       .  S
C1832      C1833   1.411       .  A
C1833      C1834   1.410       .  A
C1833     Br1842   1.929       .  S
C1834     Br1838   1.928       .  S
