geometry optimzed in LAMMPS
_audit_creation_date              2020-11-30 
_audit_creation_method            'lammps2cif' 
_symmetry_space_group_name_H-M    'P1' 
_symmetry_Int_Tables_number       1 
_symmetry_cell_setting            triclinic 
loop_ 
_symmetry_equiv_pos_as_xyz 
  x,y,z 
_cell_length_a                    28.7196744 
_cell_length_b                    28.39421025796727 
_cell_length_c                    43.27838635035957 
_cell_angle_alpha                 89.99129443629252 
_cell_angle_beta                  89.98532704682621 
_cell_angle_gamma                 89.71390432009001 
loop_ 
_atom_site_label 
_atom_site_type_symbol 
_atom_site_fract_x 
_atom_site_fract_y 
_atom_site_fract_z 
_atom_site_charge 
O1          O  0.34643704  0.05537538  0.27706142    -0.73600
O2          O  0.34975401  0.94248849  0.22365296    -0.74600
O3          O  0.34804916  0.95560809  0.28845553    -0.63200
O4          O  0.34941094  0.04231338  0.21211245    -0.71600
O5          O  0.42639180  0.03927342  0.21182726    -0.71200
O6          O  0.42492121  0.95909633  0.29050346    -0.62400
O7          O  0.42687430  0.94043152  0.22582151    -0.74900
O8          O  0.42359754  0.05776892  0.27649792    -0.73700
Cu9        Cu  0.34577221  0.99892979  0.25026017     1.04600
Cu10       Cu  0.42810965  0.99919271  0.25119326     1.04300
C11         C  0.38443693  0.07503947  0.28486588     0.92600
C12         C  0.38838698  0.92278915  0.21684208     0.91700
C13         C  0.38648117  0.94358616  0.30148585     0.83900
C14         C  0.38831938  0.05456064  0.19995878     0.90200
C15         C  0.39989906  0.29691096  0.46040116     0.85800
C16         C  0.36499994  0.33603819  0.46672478    -0.54400
C17         C  0.37034516  0.35723875  0.99171919     0.08800
C18         C  0.40940991  0.33397507  0.01191037     0.19700
C19         C  0.44774600  0.31928655  0.46517008    -0.55100
C20         C  0.45441675  0.33569536  0.99161238     0.08900
C21         C  0.39559365  0.26196623  0.48773681    -0.54700
C22         C  0.39811097  0.28053883  0.01336793     0.09400
H23         H  0.33719846  0.34526835  0.45076274     0.14000
H24         H  0.41326313  0.35078992  0.03491022    -0.00300
H25         H  0.47624676  0.31298171  0.44936416     0.14300
H26         H  0.38614101  0.22468859  0.98087321     0.14000
C27         C  0.39729249  0.69703415  0.04475221     0.85800
C28         C  0.36346816  0.65766091  0.03726413    -0.54400
C29         C  0.36739134  0.63903908  0.50798490     0.08800
C30         C  0.40537966  0.66401022  0.48777321     0.19700
C31         C  0.44576048  0.67675444  0.03796093    -0.55100
C32         C  0.45135045  0.66169721  0.50710190     0.08900
C33         C  0.39029567  0.73463951  0.01914923    -0.54700
C34         C  0.39292487  0.71739702  0.48795425     0.09400
H35         H  0.33673614  0.64598118  0.05326348     0.14000
H36         H  0.40866783  0.64855963  0.46434944    -0.00300
H37         H  0.47491619  0.68239710  0.05323748     0.14300
H38         H  0.38009109  0.77066561  0.52245889     0.14000
O39         O  0.52417698  0.04032900  0.28843835    -0.73600
O40         O  0.52415050  0.96251957  0.20925830    -0.74600
O41         O  0.52312172  0.94203410  0.27348134    -0.63200
O42         O  0.52557656  0.06048572  0.22408553    -0.71600
O43         O  0.60271880  0.05691598  0.22338092    -0.71200
O44         O  0.60025648  0.94214337  0.27569415    -0.62400
O45         O  0.60106599  0.95782652  0.21108482    -0.74900
O46         O  0.60122690  0.04143196  0.28796174    -0.73700
Cu47       Cu  0.52158879  0.00140167  0.24882540     1.04600
Cu48       Cu  0.60397242  0.99953991  0.24955207     1.04300
C49         C  0.56259926  0.05425475  0.30030057     0.92600
C50         C  0.56250823  0.94688195  0.19806065     0.91700
C51         C  0.56131963  0.92327374  0.28237198     0.83900
C52         C  0.56475321  0.07732034  0.21578020     0.90200
C53         C  0.55725185  0.29717597  0.03987843     0.85800
C54         C  0.59127989  0.33654100  0.03309706    -0.54400
C55         C  0.58781717  0.35596262  0.50462345     0.08800
C56         C  0.54763771  0.33340796  0.48559738     0.19700
C57         C  0.50890772  0.31820836  0.03374546    -0.55100
C58         C  0.50323017  0.33809390  0.50629857     0.08900
C59         C  0.56372684  0.26087203  0.01351050    -0.54700
C60         C  0.55752604  0.27967675  0.48545676     0.09400
H61         H  0.61798869  0.34728232  0.04930879     0.14000
H62         H  0.54378395  0.34911608  0.46225114    -0.00300
H63         H  0.47986963  0.31221005  0.04910854     0.14300
H64         H  0.56866882  0.22496814  0.51907072     0.14000
C65         C  0.55241034  0.69941914  0.45675713     0.85800
C66         C  0.58735647  0.66007427  0.46399253    -0.54400
C67         C  0.58416255  0.64317748  0.99454944     0.08800
C68         C  0.54526132  0.66701705  0.01438335     0.19700
C69         C  0.50483844  0.67778234  0.46377481    -0.55100
C70         C  0.49977301  0.66256695  0.99490990     0.08900
C71         C  0.56002629  0.73662940  0.48227438    -0.54700
C72         C  0.55583605  0.72052939  0.01377117     0.09400
H73         H  0.61395246  0.64766693  0.44828003     0.14000
H74         H  0.54255843  0.65173492  0.03787530    -0.00300
H75         H  0.47623553  0.68037282  0.44749811     0.14300
H76         H  0.56821633  0.77343041  0.97903710     0.14000
O77         O  0.02426195  0.43989885  0.28489211    -0.73600
O78         O  0.93852590  0.44359801  0.20976974    -0.74600
O79         O  0.92578293  0.44542392  0.27504385    -0.63200
O80         O  0.03673974  0.43773791  0.22033350    -0.71600
O81         O  0.03101910  0.35976353  0.21980934    -0.71200
O82         O  0.92304187  0.36736478  0.27656534    -0.62400
O83         O  0.93207505  0.36595888  0.21139458    -0.74900
O84         O  0.02118837  0.36199901  0.28513631    -0.73700
Cu85       Cu  0.98139741  0.44437953  0.24747007     1.04600
Cu86       Cu  0.97668325  0.36108212  0.24821049     1.04300
C87         C  0.03700393  0.40040266  0.29657167     0.92600
C88         C  0.92109806  0.40551064  0.19898092     0.91700
C89         C  0.90700836  0.40745658  0.28461890     0.83900
C90         C  0.05167943  0.39744182  0.21170432     0.90200
C91         C  0.27100860  0.41326482  0.03675782     0.85800
C92         C  0.31477311  0.38386779  0.03102307    -0.54400
C93         C  0.33351406  0.38982062  0.50609650     0.08800
C94         C  0.30727253  0.42718370  0.48590051     0.19700
C95         C  0.28668304  0.46391635  0.03201518    -0.55100
C96         C  0.30347115  0.47202701  0.50688440     0.08900
C97         C  0.23870228  0.40235745  0.00927950    -0.54700
C98         C  0.25654469  0.40833633  0.48322722     0.09400
H99         H  0.32793196  0.35719699  0.04641948     0.14000
H100        H  0.32462059  0.43374614  0.46344871    -0.00300
H101        H  0.27961760  0.49094199  0.04895892     0.14300
H102        H  0.20215108  0.38902486  0.51535350     0.14000
C103        C  0.68059904  0.42062417  0.45800370     0.85800
C104        C  0.64081117  0.38630185  0.46414084    -0.54400
C105        C  0.62157457  0.39005609  0.99312720     0.08800
C106        C  0.64520067  0.42904919  0.01315725     0.19700
C107        C  0.65919565  0.46918039  0.46373777    -0.55100
C108        C  0.64191791  0.47497460  0.99337283     0.08900
C109        C  0.71516154  0.41239790  0.48473644    -0.54700
C110        C  0.69801787  0.41701993  0.01327655     0.09400
H111        H  0.62958926  0.35931125  0.44829549     0.14000
H112        H  0.62960056  0.43249396  0.03648830    -0.00300
H113        H  0.66338722  0.49764581  0.44726917     0.14300
H114        H  0.75115651  0.40327755  0.97915599     0.14000
O115        O  0.02615587  0.63956820  0.27857979    -0.73600
O116        O  0.91754286  0.63112904  0.22183616    -0.74600
O117        O  0.92710644  0.63316012  0.28656099    -0.63200
O118        O  0.01632153  0.63663700  0.21280646    -0.71600
O119        O  0.01978517  0.55875198  0.21330367    -0.71200
O120        O  0.93478703  0.55553956  0.28856787    -0.62400
O121        O  0.92125599  0.55312886  0.22383083    -0.74900
O122        O  0.03271237  0.56162182  0.27800889    -0.73700
Cu123      Cu  0.97171378  0.63785881  0.24988923     1.04600
Cu124      Cu  0.97734681  0.55459810  0.25092017     1.04300
C125        C  0.04696840  0.60187149  0.28696519     0.92600
C126        C  0.90120925  0.59088194  0.21471214     0.91700
C127        C  0.91657756  0.59362994  0.29898748     0.83900
C128        C  0.03225466  0.59805604  0.20140968     0.90200
C129        C  0.26917492  0.58161647  0.46226921     0.85800
C130        C  0.31204194  0.61199244  0.46825282    -0.54400
C131        C  0.33232727  0.60734605  0.99568180     0.08800
C132        C  0.30653078  0.56831904  0.01460801     0.19700
C133        C  0.28623628  0.53124551  0.46718562    -0.55100
C134        C  0.30650416  0.52373711  0.99312922     0.08900
C135        C  0.23622389  0.59187024  0.48956892    -0.54700
C136        C  0.25487916  0.58516697  0.01575471     0.09400
H137        H  0.32475425  0.63877374  0.45272564     0.14000
H138        H  0.32257181  0.56193089  0.03751467    -0.00300
H139        H  0.27953070  0.50397557  0.45046322     0.14300
H140        H  0.20183860  0.60243479  0.98204742     0.14000
C141        C  0.67720921  0.57897218  0.04197240     0.85800
C142        C  0.63699965  0.61300354  0.03536338    -0.54400
C143        C  0.61924141  0.60889546  0.50532217     0.08800
C144        C  0.64347263  0.56992627  0.48552834     0.19700
C145        C  0.65707933  0.53020665  0.03568685    -0.55100
C146        C  0.64181516  0.52445213  0.50564455     0.08900
C147        C  0.71256319  0.58775480  0.01574261    -0.54700
C148        C  0.69584481  0.58306064  0.48479743     0.09400
H149        H  0.62496845  0.63995584  0.05111575     0.14000
H150        H  0.62726916  0.56547897  0.46249058    -0.00300
H151        H  0.66142390  0.50159609  0.05207022     0.14300
H152        H  0.74876687  0.59949675  0.51851829     0.14000
C153        C  0.73790148  0.59261132  0.40024610    -0.11500
C154        C  0.78647911  0.58659268  0.40322826     0.05600
C155        C  0.80453181  0.57932799  0.43299671    -0.10300
C156        C  0.77532807  0.57820928  0.45893344    -0.11900
C157        C  0.72663809  0.58459262  0.45632032    -0.01700
C158        C  0.70839094  0.59134143  0.42636437    -0.10800
C159        C  0.81868043  0.58766035  0.37577643     0.05700
H160        H  0.84163532  0.57474796  0.43633799     0.07600
H161        H  0.79149462  0.57124643  0.48101234     0.11100
H162        H  0.67140486  0.59609072  0.42294747     0.11300
H163        H  0.72262597  0.59778043  0.37761668     0.07600
C164        C  0.81435452  0.62244302  0.35272839    -0.11500
C165        C  0.84641998  0.62486024  0.32811872    -0.10800
C166        C  0.88288441  0.59173921  0.32537303    -0.01700
C167        C  0.88652112  0.55633683  0.34796581    -0.11900
C168        C  0.85548540  0.55485550  0.37305151    -0.10300
H169        H  0.78685649  0.64857707  0.35417003     0.07600
H170        H  0.84238672  0.65239450  0.31099838     0.11300
H171        H  0.91404207  0.53020615  0.34656572     0.11000
H172        H  0.86031007  0.52773870  0.39033143     0.07600
C173        C  0.80136304  0.54162664  0.16882741    -0.11500
C174        C  0.78273631  0.58272661  0.15554866     0.05600
C175        C  0.80007860  0.62674816  0.16443713    -0.10300
C176        C  0.83785654  0.62944688  0.18448663    -0.11900
C177        C  0.85878380  0.58815610  0.19590357    -0.01700
C178        C  0.83916998  0.54430839  0.18883835    -0.10800
C179        C  0.75129787  0.57942168  0.12884199     0.05700
H180        H  0.78650646  0.65888634  0.15432431     0.07600
H181        H  0.85179942  0.66379706  0.19002067     0.11100
H182        H  0.85386522  0.51201911  0.19800611     0.11300
H183        H  0.78798588  0.50729932  0.16259858     0.07600
C184        C  0.76235756  0.54759909  0.10527447    -0.11500
C185        C  0.73763977  0.54803461  0.07788043    -0.10800
C186        C  0.70088668  0.58013069  0.07317444    -0.01700
C187        C  0.68862613  0.61117803  0.09725083    -0.11900
C188        C  0.71392455  0.61091865  0.12485668    -0.10300
H189        H  0.79160295  0.52372847  0.10739897     0.07600
H190        H  0.74794267  0.52374146  0.05981115     0.11300
H191        H  0.66042337  0.63615813  0.09504111     0.11000
H192        H  0.70486354  0.63579577  0.14287963     0.07600
C193        C  0.15502210  0.56623306  0.32991964    -0.11500
C194        C  0.15829540  0.60242078  0.35171888     0.05600
C195        C  0.12776316  0.64099141  0.35034797    -0.10300
C196        C  0.09238797  0.64202044  0.32825994    -0.11900
C197        C  0.08738772  0.60435576  0.30752965    -0.01700
C198        C  0.11991498  0.56735364  0.30779886    -0.10800
C199        C  0.18895353  0.59650432  0.37835150     0.05700
H200        H  0.12980353  0.66890001  0.36735947     0.07600
H201        H  0.06768043  0.67096395  0.32836772     0.11100
H202        H  0.11745981  0.53874878  0.29134784     0.11300
H203        H  0.17869995  0.53645415  0.33071850     0.07600
C204        C  0.17821816  0.56201239  0.40017960    -0.11500
C205        C  0.20506478  0.55739889  0.42664278    -0.10800
C206        C  0.24356381  0.58694176  0.43180457    -0.01700
C207        C  0.25481125  0.62093534  0.40926274    -0.11900
C208        C  0.22732419  0.62585838  0.38281532    -0.10300
H209        H  0.14823075  0.53948502  0.39710680     0.07600
H210        H  0.19526089  0.53109014  0.44355351     0.11300
H211        H  0.28375486  0.64460007  0.41185597     0.11000
H212        H  0.23572842  0.65268764  0.36594852     0.07600
C213        C  0.10697620  0.64015771  0.13311776    -0.11500
C214        C  0.13067645  0.59867635  0.12421376     0.05600
C215        C  0.12128422  0.55722742  0.14090599    -0.10300
C216        C  0.08907352  0.55705814  0.16542719    -0.11900
C217        C  0.06575154  0.59854893  0.17461121    -0.01700
C218        C  0.07537516  0.64019260  0.15810138    -0.10800
C219        C  0.16420753  0.59815687  0.09733895     0.05700
H220        H  0.13832548  0.52455053  0.13462791     0.07600
H221        H  0.08253279  0.52427624  0.17733260     0.11100
H222        H  0.05825433  0.67288362  0.16437864     0.11300
H223        H  0.11336643  0.67284772  0.12099522     0.07600
C224        C  0.20700051  0.57378200  0.09895888    -0.11500
C225        C  0.23747553  0.57190237  0.07341458    -0.10800
C226        C  0.22530422  0.59214052  0.04472005    -0.01700
C227        C  0.18326440  0.61840489  0.04377681    -0.11900
C228        C  0.15351959  0.62149677  0.06956554    -0.10300
H229        H  0.21719012  0.55645844  0.12020307     0.07600
H230        H  0.27041317  0.55406860  0.07648699     0.11300
H231        H  0.17282449  0.63695663  0.02310128     0.11000
H232        H  0.12126700  0.64117562  0.06741610     0.07600
C233        C  0.74364843  0.40020968  0.09655480    -0.11500
C234        C  0.79081865  0.41354888  0.09400864     0.05600
C235        C  0.80646230  0.42872834  0.06485083    -0.10300
C236        C  0.77650492  0.42985434  0.03915889    -0.11900
C237        C  0.72944101  0.41607785  0.04147858    -0.01700
C238        C  0.71336727  0.40191330  0.07080217    -0.10800
C239        C  0.82376043  0.41168364  0.12130788     0.05700
H240        H  0.84233318  0.43918821  0.06167751     0.07600
H241        H  0.79039642  0.44237650  0.01743653     0.11100
H242        H  0.67754187  0.39146385  0.07386637     0.11300
H243        H  0.72990848  0.38891208  0.11862762     0.07600
C244        C  0.85770951  0.44680610  0.12582702    -0.11500
C245        C  0.88873465  0.44499699  0.15100460    -0.10800
C246        C  0.88782081  0.40735946  0.17216283    -0.01700
C247        C  0.85439400  0.37187837  0.16753811    -0.11900
C248        C  0.82254888  0.37426878  0.14274501    -0.10300
H249        H  0.86011843  0.47622174  0.11002917     0.07600
H250        H  0.91389577  0.47296732  0.15372694     0.11300
H251        H  0.85247190  0.34240777  0.18337050     0.11000
H252        H  0.79752762  0.34619939  0.14000195     0.07600
C253        C  0.80739253  0.45476656  0.33200371    -0.11500
C254        C  0.79367588  0.41418278  0.34803001     0.05600
C255        C  0.81561370  0.37103473  0.34190437    -0.10300
C256        C  0.85195572  0.36874725  0.32072896    -0.11900
C257        C  0.86682925  0.40961824  0.30542664    -0.01700
C258        C  0.84376150  0.45251020  0.31079269    -0.10800
C259        C  0.76079811  0.41779217  0.37380637     0.05700
H260        H  0.80605518  0.33957343  0.35451697     0.07600
H261        H  0.86930108  0.33524655  0.31706240     0.11100
H262        H  0.85430506  0.48438903  0.29902788     0.11300
H263        H  0.79070392  0.48837732  0.33651079     0.07600
C264        C  0.76847232  0.45179937  0.39651192    -0.11500
C265        C  0.74154168  0.45240474  0.42298565    -0.10800
C266        C  0.70587525  0.41925684  0.42740505    -0.01700
C267        C  0.69708633  0.38599240  0.40404235    -0.11900
C268        C  0.72471865  0.38514165  0.37748068    -0.10300
H269        H  0.79665515  0.47662304  0.39442239     0.07600
H270        H  0.74939420  0.47824277  0.44064342     0.11300
H271        H  0.67016458  0.35989088  0.40619979     0.11000
H272        H  0.71849062  0.35856387  0.36003084     0.07600
C273        C  0.12849443  0.43869709  0.35578636    -0.11500
C274        C  0.13611272  0.39743172  0.37313466     0.05600
C275        C  0.11050529  0.35700208  0.36500381    -0.10300
C276        C  0.07862240  0.35780848  0.34026340    -0.11900
C277        C  0.07072730  0.39927308  0.32313913    -0.01700
C278        C  0.09604969  0.43969918  0.33142106    -0.10800
C279        C  0.16915918  0.39715008  0.40022660     0.05700
H280        H  0.11547093  0.32442359  0.37760283     0.07600
H281        H  0.05987617  0.32593412  0.33468196     0.11100
H282        H  0.09080385  0.47222834  0.31894236     0.11300
H283        H  0.14692782  0.47061684  0.36153475     0.07600
C284        C  0.21223512  0.42072455  0.39923597    -0.11500
C285        C  0.24187546  0.42194445  0.42523807    -0.10800
C286        C  0.22861911  0.40145535  0.45361243    -0.01700
C287        C  0.18653126  0.37568573  0.45376452    -0.11900
C288        C  0.15748586  0.37369014  0.42770751    -0.10300
H289        H  0.22322333  0.43808482  0.37820631     0.07600
H290        H  0.27486351  0.43953636  0.42284678     0.11300
H291        H  0.17525897  0.35676744  0.47404184     0.11000
H292        H  0.12497590  0.35472457  0.42946191     0.07600
C293        C  0.18156043  0.43262519  0.09968561    -0.11500
C294        C  0.19479249  0.39985184  0.12209757     0.05600
C295        C  0.23348523  0.37074689  0.11735835    -0.10300
C296        C  0.25925962  0.37467622  0.09017072    -0.11900
C297        C  0.24589631  0.40741876  0.06723575    -0.01700
C298        C  0.20665538  0.43620025  0.07248517    -0.10800
C299        C  0.16532275  0.39441536  0.14916927     0.05700
H300        H  0.24346638  0.34491653  0.13458514     0.07600
H301        H  0.28872812  0.35146829  0.08754068     0.11100
H302        H  0.19524986  0.46144431  0.05525898     0.11300
H303        H  0.15097780  0.45454972  0.10291418     0.07600
C304        C  0.16078708  0.43181779  0.17000240    -0.11500
C305        C  0.12478708  0.43177735  0.19147260    -0.10800
C306        C  0.09285107  0.39456125  0.19196639    -0.01700
C307        C  0.09936947  0.35569320  0.17239531    -0.11900
C308        C  0.13553052  0.35568370  0.15099214    -0.10300
H309        H  0.18366397  0.46196806  0.16857146     0.07600
H310        H  0.12097612  0.46149111  0.20697365     0.11300
H311        H  0.07513315  0.32659133  0.17251144     0.11000
H312        H  0.13845204  0.32700847  0.13457575     0.07600
C313        C  0.59738252  0.85137007  0.13995635    -0.11500
C314        C  0.55922095  0.85073813  0.11953142     0.05600
C315        C  0.52280236  0.88329341  0.12467486    -0.10300
C316        C  0.52406446  0.91471310  0.14982509    -0.11900
C317        C  0.56208788  0.91506806  0.17037020    -0.01700
C318        C  0.59899508  0.88332842  0.16480776    -0.10800
C319        C  0.55765396  0.81679995  0.09281302     0.05700
H320        H  0.49273092  0.88377442  0.10959162     0.07600
H321        H  0.49504377  0.93865280  0.15329713     0.11100
H322        H  0.62880314  0.88249483  0.18010913     0.11300
H323        H  0.62632349  0.82734324  0.13653421     0.07600
C324        C  0.54317578  0.83195576  0.06341958    -0.11500
C325        C  0.54238280  0.80080751  0.03823419    -0.10800
C326        C  0.55602675  0.75315953  0.04141594    -0.01700
C327        C  0.56937362  0.73764863  0.07104260    -0.11900
C328        C  0.57059093  0.76908818  0.09628750    -0.10300
H329        H  0.53296678  0.86829873  0.05974528     0.07600
H330        H  0.53035116  0.81429970  0.01625076     0.11300
H331        H  0.57962857  0.70141528  0.07473612     0.11000
H332        H  0.58129513  0.75593516  0.11867652     0.07600
C333        C  0.51925384  0.78061562  0.39088382    -0.11500
C334        C  0.55372198  0.77185057  0.36875973     0.05600
C335        C  0.58728099  0.73679039  0.37436570    -0.10300
C336        C  0.58695423  0.71168213  0.40216740    -0.11900
C337        C  0.55331418  0.72192393  0.42497808    -0.01700
C338        C  0.51931501  0.75637557  0.41864466    -0.10800
C339        C  0.55722451  0.80363907  0.34200307     0.05700
H340        H  0.61429440  0.72957541  0.35752113     0.07600
H341        H  0.61396172  0.68573710  0.40564697     0.11100
H342        H  0.49326024  0.76543523  0.43574356     0.11300
H343        H  0.49355338  0.80800061  0.38741592     0.07600
C344        C  0.51679653  0.81840222  0.32645948    -0.11500
C345        C  0.51838942  0.85633038  0.30609730    -0.10800
C346        C  0.56049704  0.87994409  0.30092047    -0.01700
C347        C  0.60150901  0.86300862  0.31477650    -0.11900
C348        C  0.59987494  0.82513499  0.33519906    -0.10300
H349        H  0.48356646  0.80201235  0.33121324     0.07600
H350        H  0.48638909  0.86817539  0.29530630     0.11300
H351        H  0.63452228  0.88037100  0.31099585     0.11000
H352        H  0.63138723  0.81473443  0.34718755     0.07600
C353        C  0.52133892  0.12144044  0.37214188    -0.11500
C354        C  0.55959001  0.15062423  0.37899666     0.05600
C355        C  0.59943905  0.14645267  0.36011739    -0.10300
C356        C  0.60081900  0.11456604  0.33516652    -0.11900
C357        C  0.56219401  0.08617869  0.32800660    -0.01700
C358        C  0.52258514  0.08990880  0.34704112    -0.10800
C359        C  0.55800917  0.18468360  0.40582563     0.05700
H360        H  0.62991020  0.16758270  0.36480609     0.07600
H361        H  0.63196196  0.11274203  0.32110687     0.11100
H362        H  0.49226186  0.06849298  0.34243770     0.11300
H363        H  0.48983781  0.12365913  0.38580468     0.07600
C364        C  0.53591791  0.17242207  0.43373244    -0.11500
C365        C  0.53532746  0.20341481  0.45905924    -0.10800
C366        C  0.55649842  0.24804229  0.45743011    -0.01700
C367        C  0.57727422  0.26107859  0.42927930    -0.11900
C368        C  0.57851145  0.22971032  0.40398575    -0.10300
H369        H  0.51983490  0.13824582  0.43632050     0.07600
H370        H  0.51806361  0.19234226  0.48006017     0.11300
H371        H  0.59349950  0.29511958  0.42693175     0.11000
H372        H  0.59521574  0.24094686  0.38283163     0.07600
C373        C  0.52710858  0.17764097  0.16460176    -0.11500
C374        C  0.57031109  0.19444891  0.15417308     0.05600
C375        C  0.61143772  0.17577282  0.16676471    -0.10300
C376        C  0.60952248  0.13865700  0.18769077    -0.11900
C377        C  0.56642317  0.11997491  0.19665595    -0.01700
C378        C  0.52521198  0.14095239  0.18589459    -0.10800
C379        C  0.57223657  0.22722849  0.12780210     0.05700
H380        H  0.64515189  0.18881312  0.15967472     0.07600
H381        H  0.64187700  0.12371693  0.19611083     0.11100
H382        H  0.49155352  0.12786314  0.19302082     0.11300
H383        H  0.49476569  0.19110761  0.15515373     0.07600
C384        C  0.60520075  0.22022667  0.10425167    -0.11500
C385        C  0.60183659  0.24528416  0.07673682    -0.10800
C386        C  0.56445979  0.27644671  0.07175301     0.02700
C387        C  0.53475676  0.28725565  0.09671084    -0.11900
C388        C  0.53841475  0.26256770  0.12436246    -0.10300
H389        H  0.63199460  0.19345840  0.10625515     0.07600
H390        H  0.62696059  0.23824568  0.05862953     0.11300
H391        H  0.50827785  0.31427560  0.09516643     0.11000
H392        H  0.51391028  0.27017624  0.14274240     0.07600
C393        C  0.35215227  0.84637289  0.35904610    -0.11500
C394        C  0.38920168  0.84663519  0.38045486     0.05600
C395        C  0.42476001  0.88008474  0.37579607    -0.10300
C396        C  0.42398347  0.91106496  0.35029711    -0.11900
C397        C  0.38679621  0.91097618  0.32905420    -0.01700
C398        C  0.35066524  0.87838894  0.33404657    -0.10800
C399        C  0.39046340  0.81293053  0.40767728     0.05700
H400        H  0.45381908  0.88190484  0.39165558     0.07600
H401        H  0.45248432  0.93549479  0.34734507     0.11100
H402        H  0.32152319  0.87700682  0.31821269     0.11300
H403        H  0.32378126  0.82178900  0.36189571     0.07600
C404        C  0.40466110  0.82832911  0.43710478    -0.11500
C405        C  0.40537972  0.79756948  0.46264052    -0.10800
C406        C  0.39223810  0.74981505  0.45991251    -0.01700
C407        C  0.37912767  0.73400920  0.43028620    -0.11900
C408        C  0.37775928  0.76511695  0.40471158    -0.10300
H409        H  0.41476156  0.86462912  0.44057237     0.07600
H410        H  0.41719302  0.81140564  0.48454286     0.11300
H411        H  0.36925777  0.69770737  0.42682423     0.11000
H412        H  0.36725908  0.75152231  0.38242490     0.07600
C413        C  0.41830478  0.73414829  0.12860597    -0.11500
C414        C  0.38330947  0.76829047  0.13213960     0.05600
C415        C  0.34870235  0.77254092  0.10936298    -0.10300
C416        C  0.35155342  0.74624404  0.08235516    -0.11900
C417        C  0.39007063  0.71674969  0.07693933    -0.01700
C418        C  0.42151645  0.70830264  0.10135388    -0.10800
C419        C  0.38525965  0.80264364  0.15765741     0.05700
H420        H  0.32098667  0.79831526  0.11139077     0.07600
H421        H  0.32535491  0.75157139  0.06467371     0.11100
H422        H  0.44916513  0.68256606  0.09963447     0.11300
H423        H  0.44412714  0.72854095  0.14648565     0.07600
C424        C  0.34398361  0.82059482  0.17045929    -0.11500
C425        C  0.34528377  0.85894798  0.19034645    -0.10800
C426        C  0.38795332  0.87962652  0.19821616    -0.01700
C427        C  0.42953117  0.85957774  0.18732241    -0.11900
C428        C  0.42821468  0.82162347  0.16692944    -0.10300
H429        H  0.31049634  0.80592220  0.16436480     0.07600
H430        H  0.31268468  0.87304740  0.19897255     0.11300
H431        H  0.46290088  0.87427023  0.19365142     0.11000
H432        H  0.46066703  0.80878870  0.15727505     0.07600
C433        C  0.42351818  0.17598271  0.33445671    -0.11500
C434        C  0.38109864  0.19103089  0.34739487     0.05600
C435        C  0.33936132  0.17108601  0.33691273    -0.10300
C436        C  0.34029779  0.13434569  0.31564928    -0.11900
C437        C  0.38297569  0.11735571  0.30427728    -0.01700
C438        C  0.42436776  0.13973154  0.31286373    -0.10800
C439        C  0.38113035  0.22353735  0.37396112     0.05700
H440        H  0.30606796  0.18284688  0.34586724     0.07600
H441        H  0.30771277  0.11829398  0.30892087     0.11100
H442        H  0.45759830  0.12807827  0.30377430     0.11300
H443        H  0.45633066  0.19045340  0.34213616     0.07600
C444        C  0.35073296  0.21596031  0.39885876    -0.11500
C445        C  0.35546051  0.24173353  0.42595309    -0.10800
C446        C  0.39193080  0.27412298  0.42926972    -0.01700
C447        C  0.41947669  0.28477135  0.40329000    -0.11900
C448        C  0.41422402  0.25954819  0.37597281    -0.10300
H449        H  0.32471081  0.18854029  0.39809201     0.07600
H450        H  0.33192080  0.23463856  0.44492242     0.11300
H451        H  0.44521857  0.31235827  0.40371136     0.11000
H452        H  0.43675992  0.26756067  0.35663310     0.07600
C453        C  0.43004242  0.11899612  0.12691564    -0.11500
C454        C  0.39444724  0.15255823  0.12148474     0.05600
C455        C  0.35617507  0.15240858  0.14202493    -0.10300
C456        C  0.35368900  0.12018048  0.16687533    -0.11900
C457        C  0.38962164  0.08725439  0.17242401    -0.01700
C458        C  0.42773745  0.08715262  0.15191886    -0.10800
C459        C  0.39693712  0.18671352  0.09438867     0.05700
H460        H  0.32760121  0.17686035  0.13870250     0.07600
H461        H  0.32382508  0.12159719  0.18213539     0.11100
H462        H  0.45613660  0.06245245  0.15531177     0.11300
H463        H  0.46051307  0.11787273  0.11221433     0.07600
C464        C  0.41805415  0.17339215  0.06626066    -0.11500
C465        C  0.41909012  0.20408921  0.04070120    -0.10800
C466        C  0.39919781  0.24959377  0.04201900    -0.01700
C467        C  0.37971892  0.26385213  0.07041804    -0.11900
C468        C  0.37813160  0.23281232  0.09601812    -0.10300
H469        H  0.43289642  0.13855745  0.06356344     0.07600
H470        H  0.43562520  0.19190761  0.01966043     0.11300
H471        H  0.36480725  0.29858842  0.07278925     0.11000
H472        H  0.36237667  0.24523661  0.11725119     0.07600
O473        O  0.34629014  0.05397292  0.77698957    -0.73600
O474        O  0.34768784  0.93971466  0.72458710    -0.74600
O475        O  0.34725150  0.95446525  0.78941588    -0.63200
O476        O  0.34843299  0.03979156  0.71229419    -0.71600
O477        O  0.42541266  0.03639120  0.71217886    -0.71200
O478        O  0.42418979  0.95755115  0.79098201    -0.62400
O479        O  0.42482333  0.93747669  0.72642116    -0.74900
O480        O  0.42347392  0.05579465  0.77638813    -0.73700
Cu481      Cu  0.34473336  0.99693455  0.75077089     1.04600
Cu482      Cu  0.42710168  0.99673435  0.75148462     1.04300
C483        C  0.38443338  0.07368521  0.78444270     0.92600
C484        C  0.38617517  0.91972675  0.71774606     0.91700
C485        C  0.38582231  0.94273252  0.80240217     0.83900
C486        C  0.38749926  0.05208697  0.70035486     0.90200
C487        C  0.39913655  0.29701213  0.95737922     0.85800
C488        C  0.36562217  0.33740295  0.96349089    -0.54400
C489        C  0.36980284  0.35649707  0.49478249     0.08800
C490        C  0.41019276  0.33503510  0.51461084     0.19700
C491        C  0.44777183  0.31731029  0.96284498    -0.55100
C492        C  0.45462509  0.33807445  0.49379365     0.08900
C493        C  0.39274138  0.26188902  0.98446356    -0.54700
C494        C  0.40086633  0.28127058  0.51646437     0.09400
H495        H  0.33853355  0.34777532  0.94728854     0.14000
H496        H  0.41390715  0.35236968  0.53745460    -0.00300
H497        H  0.47647010  0.31037268  0.94726491     0.14300
H498        H  0.39012735  0.22450628  0.48442020     0.14000
C499        C  0.39667081  0.69744389  0.54349451     0.85800
C500        C  0.36371654  0.65698588  0.53689117    -0.54400
C501        C  0.36764982  0.64054092  0.00817101     0.08800
C502        C  0.40650621  0.66509754  0.98876604     0.19700
C503        C  0.44549534  0.67830671  0.53639762    -0.55100
C504        C  0.45185806  0.66109310  0.00847275     0.08900
C505        C  0.38806813  0.73405321  0.51751181    -0.54700
C506        C  0.39527396  0.71867712  0.98946508     0.09400
H507        H  0.33762713  0.64529981  0.55335019     0.14000
H508        H  0.40990189  0.64997928  0.96526944    -0.00300
H509        H  0.47480785  0.68510158  0.55135873     0.14300
H510        H  0.38295608  0.77125797  0.02447384     0.14000
O511        O  0.52628544  0.04110908  0.78632494    -0.73600
O512        O  0.52560018  0.96014206  0.70871365    -0.74600
O513        O  0.52329080  0.94266160  0.77334670    -0.63200
O514        O  0.52911209  0.05867277  0.72187670    -0.71600
O515        O  0.60622162  0.05390821  0.72154179    -0.71200
O516        O  0.60040870  0.94143756  0.77589681    -0.62400
O517        O  0.60242728  0.95423967  0.71085773    -0.74900
O518        O  0.60338031  0.04106742  0.78630858    -0.73700
Cu519      Cu  0.52343234  0.00072556  0.74750135     1.04600
Cu520      Cu  0.60579930  0.99748714  0.74865209     1.04300
C521        C  0.56473811  0.05485313  0.79819764     0.92600
C522        C  0.56377169  0.94352352  0.69784740     0.91700
C523        C  0.56103153  0.92388029  0.78300572     0.83900
C524        C  0.56864786  0.07491128  0.71378241     0.90200
C525        C  0.55815142  0.29897733  0.54091349     0.85800
C526        C  0.59283828  0.33744169  0.53329389    -0.54400
C527        C  0.58695859  0.35529160  0.00447304     0.08800
C528        C  0.54774456  0.33212009  0.98464713     0.19700
C529        C  0.51016220  0.32123238  0.53544303    -0.55100
C530        C  0.50265351  0.33553734  0.00468827     0.08900
C531        C  0.56273278  0.26217006  0.51468527    -0.54700
C532        C  0.55866212  0.27852214  0.98425157     0.09400
H533        H  0.62025095  0.34796334  0.54904777     0.14000
H534        H  0.54402465  0.34813988  0.96139123    -0.00300
H535        H  0.48161783  0.31632982  0.55135770     0.14300
H536        H  0.57061365  0.22386660  0.01791495     0.14000
C537        C  0.55253468  0.70018097  0.95856000     0.85800
C538        C  0.58746394  0.66075257  0.96538705    -0.54400
C539        C  0.58399042  0.64295830  0.49324900     0.08800
C540        C  0.54497519  0.66700115  0.51280292     0.19700
C541        C  0.50515075  0.67842028  0.96546752    -0.55100
C542        C  0.49934817  0.66245941  0.49335910     0.08900
C543        C  0.56049500  0.73690279  0.98425796    -0.54700
C544        C  0.55572824  0.72036516  0.51185523     0.09400
H545        H  0.61382678  0.64869534  0.94947709     0.14000
H546        H  0.54226057  0.65220363  0.53644239    -0.00300
H547        H  0.47668108  0.68113335  0.94911524     0.14300
H548        H  0.56730076  0.77326442  0.47703110     0.14000
O549        O  0.01818688  0.43720937  0.78608993    -0.73600
O550        O  0.93417972  0.44200977  0.71070058    -0.74600
O551        O  0.91969431  0.44424115  0.77524237    -0.63200
O552        O  0.03172433  0.43451047  0.72184083    -0.71600
O553        O  0.02530897  0.35662963  0.72139372    -0.71200
O554        O  0.91567284  0.36625925  0.77695305    -0.62400
O555        O  0.92646142  0.36442760  0.71233382    -0.74900
O556        O  0.01430567  0.35935092  0.78655511    -0.73700
Cu557      Cu  0.97608711  0.44215911  0.74849155     1.04600
Cu558      Cu  0.97026268  0.35892864  0.74935768     1.04300
C559        C  0.03079321  0.39765223  0.79771564     0.92600
C560        C  0.91625544  0.40419628  0.69997505     0.91700
C561        C  0.89941469  0.40668426  0.78410375     0.83900
C562        C  0.04650788  0.39406684  0.71337757     0.90200
C563        C  0.26941921  0.41145186  0.53956735     0.85800
C564        C  0.31346452  0.38230976  0.53403435    -0.54400
C565        C  0.33446985  0.39106705  0.00296586     0.08800
C566        C  0.30812302  0.42852083  0.98281643     0.19700
C567        C  0.28477831  0.46238805  0.53497865    -0.55100
C568        C  0.30495120  0.47347899  0.00387440     0.08900
C569        C  0.23766639  0.40050519  0.51182243    -0.54700
C570        C  0.25724486  0.40978482  0.98054190     0.09400
H571        H  0.32650641  0.35552178  0.54943719     0.14000
H572        H  0.32502469  0.43480802  0.96017154    -0.00300
H573        H  0.27681700  0.48938156  0.55165915     0.14300
H574        H  0.20316332  0.39098433  0.01300129     0.14000
C575        C  0.67924706  0.42026241  0.95774546     0.85800
C576        C  0.63969480  0.38594339  0.96431308    -0.54400
C577        C  0.62188167  0.39082905  0.49280807     0.08800
C578        C  0.64462667  0.43027458  0.51278822     0.19700
C579        C  0.65831611  0.46883227  0.96418366    -0.55100
C580        C  0.64194188  0.47574547  0.49267647     0.08900
C581        C  0.71495605  0.41174495  0.98391065    -0.54700
C582        C  0.69729550  0.41830831  0.51372475     0.09400
H583        H  0.62789695  0.35900780  0.94860498     0.14000
H584        H  0.62814799  0.43425230  0.53581671    -0.00300
H585        H  0.66190228  0.49751815  0.94781001     0.14300
H586        H  0.75135638  0.40330804  0.48052308     0.14000
O587        O  0.02843371  0.63953872  0.77952446    -0.73600
O588        O  0.91800306  0.63302367  0.72430064    -0.74600
O589        O  0.92959497  0.63553879  0.78936830    -0.63200
O590        O  0.01649769  0.63578290  0.71442912    -0.71600
O591        O  0.01811055  0.55783086  0.71521075    -0.71200
O592        O  0.93544857  0.55778977  0.79129998    -0.62400
O593        O  0.92005512  0.55499318  0.72649072    -0.74900
O594        O  0.03334332  0.56147911  0.77944228    -0.73700
Cu595      Cu  0.97298640  0.63870879  0.75189195     1.04600
Cu596      Cu  0.97676439  0.55536234  0.75319827     1.04300
C597        C  0.04916147  0.60159818  0.78747548     0.92600
C598        C  0.90123752  0.59310203  0.71682768     0.91700
C599        C  0.91868342  0.59630340  0.80208042     0.83900
C600        C  0.03135658  0.59669806  0.70314661     0.90200
C601        C  0.27225244  0.58366863  0.95985969     0.85800
C602        C  0.31408012  0.61469451  0.96712487    -0.54400
C603        C  0.33158743  0.60520725  0.49650264     0.08800
C604        C  0.30584412  0.56712981  0.51649547     0.19700
C605        C  0.29058750  0.53358202  0.96440948    -0.55100
C606        C  0.30393966  0.52203670  0.49560678     0.08900
C607        C  0.23763089  0.59229971  0.98658706    -0.54700
C608        C  0.25440012  0.58466085  0.51844778     0.09400
H609        H  0.32744510  0.64159635  0.95193636     0.14000
H610        H  0.32263489  0.56090119  0.53919012    -0.00300
H611        H  0.28627546  0.50673812  0.94700646     0.14300
H612        H  0.20041361  0.60225214  0.48548788     0.14000
C613        C  0.67852827  0.58022957  0.54053825     0.85800
C614        C  0.63772721  0.61370949  0.53414847    -0.54400
C615        C  0.61902557  0.60862030  0.00641702     0.08800
C616        C  0.64321042  0.56956053  0.98661240     0.19700
C617        C  0.65875135  0.53122842  0.53461817    -0.55100
C618        C  0.64088679  0.52370779  0.00650431     0.08900
C619        C  0.71308543  0.58934491  0.51395535    -0.54700
C620        C  0.69561625  0.58215187  0.98650048     0.09400
H621        H  0.62566399  0.64036767  0.54997653     0.14000
H622        H  0.62778721  0.56579326  0.96325962    -0.00300
H623        H  0.66349629  0.50279064  0.55108190     0.14300
H624        H  0.74864636  0.59662764  0.02031027     0.14000
C625        C  0.74211012  0.60245526  0.90413318    -0.11500
C626        C  0.78889247  0.58750225  0.90665494     0.05600
C627        C  0.80385907  0.56969973  0.93533137    -0.10300
C628        C  0.77357123  0.56781871  0.96074696    -0.11900
C629        C  0.72695593  0.58331719  0.95848385    -0.01700
C630        C  0.71144704  0.59984638  0.92956963    -0.10800
C631        C  0.82210627  0.59012270  0.87973259     0.05700
H632        H  0.83943190  0.55782595  0.93834734     0.07600
H633        H  0.78678090  0.55348232  0.98221681     0.11100
H634        H  0.67590995  0.61149425  0.92662004     0.11300
H635        H  0.72901121  0.61571968  0.88232604     0.07600
C636        C  0.82277197  0.62948382  0.85987386    -0.11500
C637        C  0.85467693  0.63211703  0.83517383    -0.10800
C638        C  0.88609143  0.59496223  0.82914784    -0.01700
C639        C  0.88526610  0.55560827  0.84889354    -0.11900
C640        C  0.85435754  0.55356009  0.87401032    -0.10300
H641        H  0.79909708  0.65868186  0.86374665     0.07600
H642        H  0.85422133  0.66295816  0.82045447     0.11300
H643        H  0.90892116  0.52635827  0.84508367     0.11000
H644        H  0.85556277  0.52289682  0.88880910     0.07600
C645        C  0.80463177  0.54540233  0.66713166    -0.11500
C646        C  0.78844507  0.58657541  0.65261405     0.05600
C647        C  0.80685062  0.63026454  0.66126239    -0.10300
C648        C  0.84258304  0.63253496  0.68297841    -0.11900
C649        C  0.86045150  0.59110665  0.69634315    -0.01700
C650        C  0.84035289  0.54763846  0.68883286    -0.10800
C651        C  0.75682584  0.58340668  0.62593307     0.05700
H652        H  0.79529558  0.66238993  0.65007415     0.07600
H653        H  0.85732305  0.66656728  0.68842870     0.11100
H654        H  0.85305660  0.51521796  0.69906312     0.11300
H655        H  0.79056040  0.51135273  0.66097141     0.07600
C656        C  0.76650835  0.55049795  0.60275398    -0.11500
C657        C  0.74030673  0.54988212  0.57590782    -0.10800
C658        C  0.70338902  0.58196680  0.57141254    -0.01700
C659        C  0.69271748  0.61423073  0.59510844    -0.11900
C660        C  0.71953043  0.61507283  0.62210484    -0.10300
H661        H  0.79560893  0.52637196  0.60482646     0.07600
H662        H  0.74959324  0.52480799  0.55806134     0.11300
H663        H  0.66468894  0.63942993  0.59296043     0.11000
H664        H  0.71150974  0.64073700  0.63985345     0.07600
C665        C  0.16047389  0.56558077  0.82659892    -0.11500
C666        C  0.16727428  0.60350717  0.84679405     0.05600
C667        C  0.13822177  0.64320142  0.84496682    -0.10300
C668        C  0.10054023  0.64345724  0.82467361    -0.11900
C669        C  0.09165799  0.60396614  0.80612283    -0.01700
C670        C  0.12292506  0.56586105  0.80630923    -0.10800
C671        C  0.19810772  0.59774320  0.87346640     0.05700
H672        H  0.14272312  0.67246257  0.86072335     0.07600
H673        H  0.07701774  0.67339455  0.82468984     0.11100
H674        H  0.11752890  0.53572638  0.79143249     0.11300
H675        H  0.18282091  0.53476307  0.82772435     0.07600
C676        C  0.19017185  0.55987676  0.89336005    -0.11500
C677        C  0.21446583  0.55617964  0.92084879    -0.10800
C678        C  0.24850482  0.58946354  0.92883426    -0.01700
C679        C  0.25670012  0.62753257  0.90861288    -0.11900
C680        C  0.23126596  0.63176831  0.88120126    -0.10300
H681        H  0.16336860  0.53440503  0.88839685     0.07600
H682        H  0.20605588  0.52738914  0.93628207     0.11300
H683        H  0.28107084  0.65506991  0.91403662     0.11000
H684        H  0.23685396  0.66187854  0.86629791     0.07600
C685        C  0.11158696  0.63753492  0.63770001    -0.11500
C686        C  0.13077057  0.59483681  0.62694324     0.05600
C687        C  0.11632742  0.55282736  0.64111811    -0.10300
C688        C  0.08345401  0.55343048  0.66524224    -0.11900
C689        C  0.06479776  0.59618203  0.67643621    -0.01700
C690        C  0.07944287  0.63825186  0.66227080    -0.10800
C691        C  0.16398356  0.59410421  0.60014028     0.05700
H692        H  0.12976593  0.51938704  0.63304470     0.07600
H693        H  0.07258302  0.52031557  0.67515556     0.11100
H694        H  0.06599718  0.67186664  0.67014060     0.11300
H695        H  0.12186436  0.67051774  0.62723026     0.07600
C696        C  0.20755604  0.57129960  0.60185446    -0.11500
C697        C  0.23811070  0.57064023  0.57626960    -0.10800
C698        C  0.22506786  0.59058524  0.54761310    -0.01700
C699        C  0.18192198  0.61496500  0.54671399    -0.11900
C700        C  0.15215498  0.61670540  0.57241908    -0.10300
H701        H  0.21823572  0.55443931  0.62317139     0.07600
H702        H  0.27165879  0.55403894  0.57920153     0.11300
H703        H  0.17052056  0.63330462  0.52620950     0.11000
H704        H  0.11917132  0.63512323  0.57039815     0.07600
C705        C  0.73959465  0.40510142  0.59775112    -0.11500
C706        C  0.78754171  0.41507528  0.59518767     0.05600
C707        C  0.80480050  0.42713395  0.56585442    -0.10300
C708        C  0.77554536  0.42859003  0.53996758    -0.11900
C709        C  0.72775812  0.41766300  0.54220786    -0.01700
C710        C  0.71009886  0.40667246  0.57169179    -0.10800
C711        C  0.81977206  0.41279019  0.62262618     0.05700
H712        H  0.84135157  0.43488425  0.56268745     0.07600
H713        H  0.79074553  0.43903653  0.51817509     0.11100
H714        H  0.67364625  0.39865988  0.57470850     0.11300
H715        H  0.72471008  0.39643309  0.62000584     0.07600
C716        C  0.85659832  0.44511450  0.62588787    -0.11500
C717        C  0.88745074  0.44248660  0.65100939    -0.10800
C718        C  0.88325072  0.40677749  0.67331269    -0.01700
C719        C  0.84670408  0.37428612  0.67014650    -0.11900
C720        C  0.81512102  0.37753091  0.64534252    -0.10300
H721        H  0.86143177  0.47297283  0.60915306     0.07600
H722        H  0.91506252  0.46818177  0.65279214     0.11300
H723        H  0.84222134  0.34660224  0.68709046     0.11000
H724        H  0.78766186  0.35169348  0.64358627     0.07600
C725        C  0.79802608  0.45690672  0.82843936    -0.11500
C726        C  0.78072346  0.41629266  0.84282411     0.05600
C727        C  0.79946512  0.37211725  0.83525494    -0.10300
C728        C  0.83728821  0.36889444  0.81531268    -0.11900
C729        C  0.85685693  0.40982754  0.80270004    -0.01700
C730        C  0.83592622  0.45371106  0.80850646    -0.10800
C731        C  0.74970963  0.42044526  0.86961978     0.05700
H732        H  0.78701206  0.34041721  0.84639063     0.07600
H733        H  0.85242271  0.33453790  0.81088243     0.11100
H734        H  0.84975515  0.48569281  0.79850977     0.11300
H735        H  0.78370851  0.49130435  0.83386498     0.07600
C736        C  0.76108110  0.45255489  0.89286887    -0.11500
C737        C  0.73786175  0.45167928  0.92085014    -0.10800
C738        C  0.70205316  0.41916961  0.92626494    -0.01700
C739        C  0.68925569  0.38810480  0.90235979    -0.11900
C740        C  0.71321093  0.38862489  0.87430193    -0.10300
H741        H  0.78962984  0.47675668  0.89005480     0.07600
H742        H  0.74847907  0.47601205  0.93873720     0.11300
H743        H  0.66171345  0.36279305  0.90493796     0.11000
H744        H  0.70400887  0.36350092  0.85651558     0.07600
C745        C  0.12468050  0.43639133  0.85494209    -0.11500
C746        C  0.13391429  0.39510053  0.87194851     0.05600
C747        C  0.10863161  0.35428463  0.86410886    -0.10300
C748        C  0.07531485  0.35488624  0.84017061    -0.11900
C749        C  0.06563291  0.39652904  0.82362194    -0.01700
C750        C  0.09084898  0.43720885  0.83146240    -0.10800
C751        C  0.16817509  0.39535802  0.89845963     0.05700
H752        H  0.11491242  0.32157628  0.87630850     0.07600
H753        H  0.05693389  0.32273922  0.83474508     0.11100
H754        H  0.08456647  0.46988743  0.81927593     0.11300
H755        H  0.14294722  0.46850143  0.86018915     0.07600
C756        C  0.20994841  0.42125398  0.89717418    -0.11500
C757        C  0.24022086  0.42365332  0.92283836    -0.10800
C758        C  0.22898846  0.40186096  0.95115838    -0.01700
C759        C  0.18844437  0.37369880  0.95158185    -0.11900
C760        C  0.15873365  0.37060513  0.92586398    -0.10300
H761        H  0.21935503  0.43973779  0.87621989     0.07600
H762        H  0.27200740  0.44331387  0.92030748     0.11300
H763        H  0.17894622  0.35386483  0.97190879     0.11000
H764        H  0.12733595  0.34988319  0.92790929     0.07600
C765        C  0.17704072  0.42796080  0.60105651    -0.11500
C766        C  0.18991433  0.39518356  0.62359005     0.05600
C767        C  0.22936859  0.36689438  0.61933200    -0.10300
C768        C  0.25630014  0.37187504  0.59265732    -0.11900
C769        C  0.24346720  0.40492398  0.56975775    -0.01700
C770        C  0.20344026  0.43276956  0.57448036    -0.10800
C771        C  0.16057620  0.39058086  0.65093356     0.05700
H772        H  0.23932978  0.34122518  0.63666592     0.07600
H773        H  0.28639869  0.34936380  0.59039560     0.11100
H774        H  0.19234381  0.45817237  0.55726706     0.11300
H775        H  0.14596482  0.44929937  0.60382048     0.07600
C776        C  0.15337117  0.42998528  0.66976957    -0.11500
C777        C  0.11752270  0.43009110  0.69130079    -0.10800
C778        C  0.08814459  0.39098157  0.69393640    -0.01700
C779        C  0.09767762  0.35014288  0.67669998    -0.11900
C780        C  0.13387926  0.34996846  0.65521623    -0.10300
H781        H  0.17411406  0.46141087  0.66672581     0.07600
H782        H  0.11181054  0.46134948  0.70514403     0.11300
H783        H  0.07572683  0.31937753  0.67862827     0.11000
H784        H  0.13904628  0.31945014  0.64056536     0.07600
C785        C  0.59900918  0.84917898  0.63890286    -0.11500
C786        C  0.56050475  0.84830890  0.61870627     0.05600
C787        C  0.52331877  0.87958118  0.62477308    -0.10300
C788        C  0.52444833  0.91037629  0.65024285    -0.11900
C789        C  0.56300728  0.91131184  0.67033665    -0.01700
C790        C  0.60036033  0.88038967  0.66417570    -0.10800
C791        C  0.55918042  0.81522343  0.59145469     0.05700
H792        H  0.49277584  0.87969261  0.61010743     0.07600
H793        H  0.49500445  0.93357105  0.65420358     0.11100
H794        H  0.63054286  0.87989121  0.67916988     0.11300
H795        H  0.62852012  0.82610454  0.63493587     0.07600
C796        C  0.54054478  0.82980865  0.56289519    -0.11500
C797        C  0.53953328  0.79917688  0.53739235    -0.10800
C798        C  0.55679355  0.75269247  0.53952656    -0.01700
C799        C  0.57458565  0.73777968  0.56821521    -0.11900
C800        C  0.57625950  0.76869303  0.59365773    -0.10300
H801        H  0.52723773  0.86527010  0.56007673     0.07600
H802        H  0.52450810  0.81191360  0.51600208     0.11300
H803        H  0.58766663  0.70242369  0.57106102     0.11000
H804        H  0.59029562  0.75579866  0.61530387     0.07600
C805        C  0.51870050  0.78443471  0.89472266    -0.11500
C806        C  0.55173889  0.77527456  0.87178010     0.05600
C807        C  0.58429001  0.73880252  0.87603115    -0.10300
C808        C  0.58460094  0.71275076  0.90344448    -0.11900
C809        C  0.55261757  0.72348724  0.92711533    -0.01700
C810        C  0.51928364  0.75909960  0.92201682    -0.10800
C811        C  0.55496083  0.80767400  0.84541173     0.05700
H812        H  0.61006147  0.73121892  0.85842419     0.07600
H813        H  0.61065169  0.68556497  0.90595806     0.11100
H814        H  0.49438101  0.76831706  0.93981455     0.11300
H815        H  0.49387264  0.81286618  0.89223693     0.07600
C816        C  0.51444807  0.82320329  0.83031009    -0.11500
C817        C  0.51655966  0.86015615  0.80920873    -0.10800
C818        C  0.55922654  0.88213994  0.80299145    -0.01700
C819        C  0.60001511  0.86511414  0.81707245    -0.11900
C820        C  0.59788679  0.82814421  0.83812805    -0.10300
H821        H  0.48095836  0.80777070  0.83563893     0.07600
H822        H  0.48466176  0.87229239  0.79843202     0.11300
H823        H  0.63337894  0.88144014  0.81269751     0.11000
H824        H  0.62939405  0.81727710  0.84994783     0.07600
C825        C  0.52390406  0.12087540  0.87044859    -0.11500
C826        C  0.56091571  0.15206621  0.87628820     0.05600
C827        C  0.59974785  0.15018305  0.85637126    -0.10300
C828        C  0.60153426  0.11803976  0.83154987    -0.11900
C829        C  0.56416936  0.08741978  0.82552188    -0.01700
C830        C  0.52539399  0.08931568  0.84539630    -0.10800
C831        C  0.55937466  0.18535547  0.90345712     0.05700
H832        H  0.62914057  0.17315139  0.86026740     0.07600
H833        H  0.63191861  0.11771274  0.81672096     0.11100
H834        H  0.49604011  0.06623794  0.84158532     0.11300
H835        H  0.49325902  0.12137807  0.88502617     0.07600
C836        C  0.54276099  0.17006752  0.93232714    -0.11500
C837        C  0.54228002  0.20026334  0.95804616    -0.10800
C838        C  0.55820774  0.24712116  0.95595414    -0.01700
C839        C  0.57341804  0.26299356  0.92681529    -0.11900
C840        C  0.57449574  0.23243557  0.90105289    -0.10300
H841        H  0.53080508  0.13423524  0.93523865     0.07600
H842        H  0.52887001  0.18671895  0.97964035     0.11300
H843        H  0.58533177  0.29876133  0.92395703     0.11000
H844        H  0.58685506  0.24579923  0.87911598     0.07600
C845        C  0.53182033  0.17894778  0.66571485    -0.11500
C846        C  0.57488060  0.19487313  0.65448085     0.05600
C847        C  0.61609690  0.17419944  0.66563128    -0.10300
C848        C  0.61415449  0.13583982  0.68561556    -0.11900
C849        C  0.57097397  0.11804847  0.69516436    -0.01700
C850        C  0.52995737  0.14117729  0.68612975    -0.10800
C851        C  0.57617787  0.22841672  0.62844407     0.05700
H852        H  0.64981735  0.18657589  0.65806028     0.07600
H853        H  0.64643421  0.11936488  0.69287670     0.11100
H854        H  0.49631202  0.12909559  0.69399713     0.11300
H855        H  0.49935154  0.19389153  0.65750299     0.07600
C856        C  0.60819254  0.22164459  0.60430018    -0.11500
C857        C  0.60384086  0.24700911  0.57698243    -0.10800
C858        C  0.56631417  0.27821958  0.57269427     0.02700
C859        C  0.53743284  0.28869704  0.59812844    -0.11900
C860        C  0.54225558  0.26386701  0.62567601    -0.10300
H861        H  0.63493631  0.19474112  0.60562901     0.07600
H862        H  0.62823128  0.24005943  0.55842659     0.11300
H863        H  0.51077050  0.31557891  0.59708372     0.11000
H864        H  0.51845156  0.27138504  0.64446986     0.07600
C865        C  0.35366545  0.84649777  0.86095960    -0.11500
C866        C  0.39039121  0.84858160  0.88256199     0.05600
C867        C  0.42470785  0.88330506  0.87789928    -0.10300
C868        C  0.42323401  0.91353889  0.85204176    -0.11900
C869        C  0.38652567  0.91133201  0.83048245    -0.01700
C870        C  0.35144891  0.87772063  0.83560466    -0.10800
C871        C  0.39266493  0.81493008  0.90972419     0.05700
H872        H  0.45343351  0.88656174  0.89392398     0.07600
H873        H  0.45087466  0.93893460  0.84898035     0.11100
H874        H  0.32270668  0.87480853  0.81954817     0.11300
H875        H  0.32616980  0.82093553  0.86385232     0.07600
C876        C  0.40626124  0.83043160  0.93926467    -0.11500
C877        C  0.40717695  0.79946515  0.96471166    -0.10800
C878        C  0.39489552  0.75149337  0.96167941    -0.01700
C879        C  0.38278361  0.73566433  0.93190072    -0.11900
C880        C  0.38124513  0.76687324  0.90647700    -0.10300
H881        H  0.41557157  0.86692093  0.94289693     0.07600
H882        H  0.41836304  0.81332560  0.98675389     0.11300
H883        H  0.37375429  0.69923142  0.92814686     0.11000
H884        H  0.37147271  0.75317539  0.88407833     0.07600
C885        C  0.41720725  0.73276650  0.62789794    -0.11500
C886        C  0.38176550  0.76630318  0.63205834     0.05600
C887        C  0.34753073  0.77146209  0.60910107    -0.10300
C888        C  0.35107126  0.74664317  0.58147399    -0.11900
C889        C  0.38977411  0.71751706  0.57568663    -0.01700
C890        C  0.42105016  0.70835412  0.60009277    -0.10800
C891        C  0.38327297  0.79959458  0.65828646     0.05700
H892        H  0.31950280  0.79679521  0.61156966     0.07600
H893        H  0.32492098  0.75243748  0.56382904     0.11100
H894        H  0.44889683  0.68288607  0.59800067     0.11300
H895        H  0.44285934  0.72646941  0.64578856     0.07600
C896        C  0.34188469  0.81714684  0.67124533    -0.11500
C897        C  0.34300323  0.85531269  0.69141295    -0.10800
C898        C  0.38559650  0.87621559  0.69932254    -0.01700
C899        C  0.42721963  0.85626393  0.68842603    -0.11900
C900        C  0.42609136  0.81849872  0.66788238    -0.10300
H901        H  0.30847157  0.80250780  0.66491433     0.07600
H902        H  0.31036375  0.86929102  0.70006620     0.11300
H903        H  0.46055189  0.87109490  0.69470726     0.11000
H904        H  0.45863936  0.80603122  0.65818218     0.07600
C905        C  0.42337028  0.17680524  0.83226268    -0.11500
C906        C  0.38061868  0.19344374  0.84382043     0.05600
C907        C  0.33902859  0.17383259  0.83287137    -0.10300
C908        C  0.34025707  0.13573619  0.81269851    -0.11900
C909        C  0.38311190  0.11704142  0.80285427    -0.01700
C910        C  0.42454631  0.13911222  0.81173311    -0.10800
C911        C  0.37997149  0.22631066  0.87014633     0.05700
H912        H  0.30557352  0.18674195  0.84085125     0.07600
H913        H  0.30767069  0.12001238  0.80565166     0.11100
H914        H  0.45794758  0.12614066  0.80375513     0.11300
H915        H  0.45604565  0.19102962  0.84040581     0.07600
C916        C  0.34921337  0.21853232  0.89481016    -0.11500
C917        C  0.35404697  0.24350887  0.92218433    -0.10800
C918        C  0.39097719  0.27521935  0.92599539    -0.01700
C919        C  0.41857346  0.28656714  0.90017093    -0.11900
C920        C  0.41324485  0.26209028  0.87254079    -0.10300
H921        H  0.32300293  0.19132797  0.89369627     0.07600
H922        H  0.33023510  0.23620034  0.94096909     0.11300
H923        H  0.44464704  0.31382053  0.90112573     0.11000
H924        H  0.43611117  0.27011497  0.85336436     0.07600
C925        C  0.43342200  0.12175570  0.63076944    -0.11500
C926        C  0.39671196  0.15334091  0.62402122     0.05600
C927        C  0.35612844  0.15015708  0.64233820    -0.10300
C928        C  0.35247994  0.11667272  0.66640612    -0.11900
C929        C  0.38952389  0.08561112  0.67329667    -0.01700
C930        C  0.42992773  0.08869192  0.65494540    -0.10800
C931        C  0.40030553  0.18804123  0.59744095     0.05700
H932        H  0.32675675  0.17316597  0.63778842     0.07600
H933        H  0.32084905  0.11567560  0.68000707     0.11100
H934        H  0.45925264  0.06555032  0.65940566     0.11300
H935        H  0.46548606  0.12305301  0.61765215     0.07600
C936        C  0.42271362  0.17520688  0.56969573    -0.11500
C937        C  0.42386845  0.20590393  0.54418654    -0.10800
C938        C  0.40293291  0.25092956  0.54529581    -0.01700
C939        C  0.38283572  0.26501253  0.57354196    -0.11900
C940        C  0.38097064  0.23386927  0.59905731    -0.10300
H941        H  0.43820639  0.14059632  0.56722536     0.07600
H942        H  0.44102607  0.19401659  0.52329647     0.11300
H943        H  0.36731638  0.29954309  0.57575622     0.11000
H944        H  0.36431954  0.24575372  0.62012372     0.07600
loop_ 
_geom_bond_atom_site_label_1 
_geom_bond_atom_site_label_2 
_geom_bond_distance 
_geom_bond_site_symmetry_2 
_ccdc_geom_bond_type 
O1           Cu9   1.979   1_545  S
O1           C11   1.274       .  A
O2           Cu9   1.976       .  S
O2           C12   1.275       .  A
O3           Cu9   2.061       .  S
O3           C13   1.284       .  A
O4           Cu9   2.063   1_545  S
O4           C14   1.284       .  A
O5          Cu10   2.049   1_545  S
O5           C14   1.282       .  A
O6          Cu10   2.049       .  S
O6           C13   1.282       .  A
O7          Cu10   1.998       .  S
O7           C12   1.277       .  A
O8          Cu10   1.995   1_545  S
O8           C11   1.277       .  A
Cu9         Cu10   2.365       .  S
C11         C437   1.467       .  S
C12         C426   1.467       .  S
C13         C397   1.510       .  S
C14         C457   1.511       .  S
C15          C16   1.517       .  S
C15          C21   1.549       .  S
C15          C19   1.531       .  S
C15         C446   1.513       .  S
C16          H23   1.087       .  S
C16         C489   1.354       .  D
C17          C18   1.566   1_556  S
C17         C488   1.352       .  D
C17         C565   1.487   1_556  S
C18          C22   1.554       .  S
C18          C20   1.564   1_554  S
C18          H24   1.110       .  S
C19          H25   1.081       .  S
C19         C492   1.364       .  D
C20         C491   1.364       .  D
C20         C530   1.497   1_556  S
C21         H498   1.086       .  S
C21         C494   1.368       .  D
C22         C493   1.368   1_554  D
C22         C466   1.520       .  S
H26         C493   1.085       .  S
C27          C28   1.520       .  S
C27          C33   1.551       .  S
C27          C31   1.532       .  S
C27         C417   1.515       .  S
C28          H35   1.087       .  S
C28         C501   1.355       .  D
C29          C30   1.570       .  S
C29         C500   1.355       .  D
C29         C603   1.496       .  S
C30          C34   1.556       .  S
C30          C32   1.564       .  S
C30          H36   1.108       .  S
C31          H37   1.080       .  S
C31         C504   1.362       .  D
C32         C503   1.363       .  D
C32         C542   1.501       .  S
C33         H510   1.085       .  S
C33         C506   1.370   1_554  D
C34         C505   1.371       .  D
C34         C406   1.523       .  S
H38         C505   1.085       .  S
O39         Cu47   2.042       .  S
O39          C49   1.282       .  A
O40         Cu47   2.039   1_565  S
O40          C50   1.281       .  A
O41         Cu47   1.995   1_565  S
O41          C51   1.277       .  A
O42         Cu47   1.994       .  S
O42          C52   1.276       .  A
O43         Cu48   1.984   1_545  S
O43          C52   1.275       .  A
O44         Cu48   1.987       .  S
O44          C51   1.275       .  A
O45         Cu48   2.045       .  S
O45          C50   1.282       .  A
O46         Cu48   2.045   1_545  S
O46          C49   1.282       .  A
Cu47        Cu48   2.367   1_545  S
C49         C357   1.503       .  S
C50         C317   1.501       .  S
C51         C346   1.469       .  S
C52         C377   1.468       .  S
C53          C54   1.517       .  S
C53          C59   1.548       .  S
C53          C57   1.532       .  S
C53         C386   1.514       .  S
C54          H61   1.085       .  S
C54         C527   1.354       .  D
C55          C56   1.558       .  S
C55         C526   1.355       .  D
C55         C577   1.486       .  S
C56          C60   1.550       .  S
C56          C58   1.564       .  S
C56          H62   1.110       .  S
C57          H63   1.081       .  S
C57         C530   1.362       .  D
C58         C529   1.363       .  D
C58         C492   1.497       .  S
C59         H536   1.085       .  S
C59         C532   1.369   1_554  D
C60         C531   1.367       .  D
C60         C366   1.510       .  S
H64         C531   1.086       .  S
C65          C66   1.530       .  S
C65          C71   1.545       .  S
C65          C69   1.531       .  S
C65         C337   1.517       .  S
C66          H73   1.080       .  S
C66         C539   1.360       .  D
C67          C68   1.561   1_556  S
C67         C538   1.361       .  D
C67         C615   1.490   1_556  S
C68          C72   1.551       .  S
C68          C70   1.561   1_554  S
C68          H74   1.108       .  S
C69          H75   1.084       .  S
C69         C542   1.362       .  D
C70         C541   1.360       .  D
C70         C504   1.497   1_556  S
C71         H548   1.086       .  S
C71         C544   1.367       .  D
C72         C543   1.366   1_554  D
C72         C326   1.513       .  S
H76         C543   1.085       .  S
O77         Cu85   2.038   1_455  S
O77          C87   1.282       .  A
O78         Cu85   2.044       .  S
O78          C88   1.282       .  A
O79         Cu85   1.994       .  S
O79          C89   1.277       .  A
O80         Cu85   1.984   1_455  S
O80          C90   1.276       .  A
O81         Cu86   1.986   1_455  S
O81          C90   1.275       .  A
O82         Cu86   1.977       .  S
O82          C89   1.274       .  A
O83         Cu86   2.049       .  S
O83          C88   1.283       .  A
O84         Cu86   2.047   1_455  S
O84          C87   1.283       .  A
Cu85        Cu86   2.370       .  S
C87         C277   1.504       .  S
C88         C246   1.504       .  S
C89         C257   1.465       .  S
C90         C306   1.461       .  S
C91          C92   1.526       .  S
C91          C97   1.541       .  S
C91          C95   1.523       .  S
C91         C297   1.513       .  S
C92          H99   1.076       .  S
C92         C565   1.355       .  D
C93          C94   1.565       .  S
C93         C564   1.356       .  D
C93         C489   1.487       .  S
C94          C98   1.559       .  S
C94          C96   1.567       .  S
C94         H100   1.108       .  S
C95         H101   1.080       .  S
C95         C568   1.354       .  D
C96         C567   1.357       .  D
C96         C606   1.502       .  S
C97         H574   1.084       .  S
C97         C570   1.370   1_554  D
C98         C569   1.370       .  D
C98         C286   1.525       .  S
H102        C569   1.083       .  S
C103        C104   1.529       .  S
C103        C109   1.542       .  S
C103        C107   1.527       .  S
C103        C266   1.510       .  S
C104        H111   1.079       .  S
C104        C577   1.360       .  D
C105        C106   1.564   1_556  S
C105        C576   1.356       .  D
C105        C527   1.488   1_556  S
C106        C110   1.553       .  S
C106        C108   1.562   1_554  S
C106        H112   1.109       .  S
C107        H113   1.085       .  S
C107        C580   1.359       .  D
C108        C579   1.359       .  D
C108        C618   1.496   1_556  S
C109        H586   1.085       .  S
C109        C582   1.365       .  D
C110        C581   1.369   1_554  D
C110        C237   1.518       .  S
H114        C581   1.086       .  S
O115       Cu123   1.998   1_455  S
O115        C125   1.276       .  A
O116       Cu123   1.984       .  S
O116        C126   1.275       .  A
O117       Cu123   2.044       .  S
O117        C127   1.282       .  A
O118       Cu123   2.053   1_455  S
O118        C128   1.284       .  A
O119       Cu124   2.037   1_455  S
O119        C128   1.282       .  A
O120       Cu124   2.037       .  S
O120        C127   1.281       .  A
O121       Cu124   1.993       .  S
O121        C126   1.277       .  A
O122       Cu124   1.987   1_455  S
O122        C125   1.276       .  A
Cu123      Cu124   2.369       .  S
C125        C197   1.465       .  S
C126        C177   1.468       .  S
C127        C166   1.498       .  S
C128        C217   1.507       .  S
C129        C130   1.529       .  S
C129        C135   1.540       .  S
C129        C133   1.524       .  S
C129        C206   1.517       .  S
C130        H137   1.080       .  S
C130        C603   1.359       .  D
C131        C132   1.567   1_556  S
C131        C602   1.358       .  D
C131        C501   1.490   1_556  S
C132        C136   1.557       .  S
C132        C134   1.571   1_554  S
C132        H138   1.108       .  S
C133        H139   1.078       .  S
C133        C606   1.356       .  D
C134        C605   1.353       .  D
C134        C568   1.502   1_556  S
C135        H612   1.083       .  S
C135        C608   1.370       .  D
C136        C607   1.371   1_554  D
C136        C226   1.526       .  S
H140        C607   1.084       .  S
C141        C142   1.529       .  S
C141        C147   1.544       .  S
C141        C145   1.528       .  S
C141        C186   1.513       .  S
C142        H149   1.080       .  S
C142        C615   1.361       .  D
C143        C144   1.560       .  S
C143        C614   1.363       .  D
C143        C539   1.491       .  S
C144        C148   1.552       .  S
C144        C146   1.558       .  S
C144        H150   1.108       .  S
C145        H151   1.085       .  S
C145        C618   1.359       .  D
C146        C617   1.359       .  D
C146        C580   1.493       .  S
C147        H624   1.086       .  S
C147        C620   1.366   1_554  D
C148        C619   1.368       .  D
C148        C157   1.517       .  S
H152        C619   1.084       .  S
C153        C154   1.411       .  A
C153        C158   1.413       .  A
C153        H163   1.083       .  S
C154        C159   1.506       .  S
C154        C155   1.404       .  A
C155        C156   1.402       .  A
C155        H160   1.083       .  S
C156        C157   1.414       .  A
C156        H161   1.080       .  S
C157        C158   1.411       .  A
C158        H162   1.080       .  S
C159        C164   1.409       .  A
C159        C168   1.410       .  A
C164        C165   1.410       .  A
C164        H169   1.083       .  S
C165        C166   1.409       .  A
C165        H170   1.083       .  S
C166        C167   1.406       .  A
C167        C168   1.405       .  A
C167        H171   1.083       .  S
C168        H172   1.082       .  S
C173        C174   1.404       .  A
C173        C178   1.391       .  A
C173        H183   1.084       .  S
C174        C179   1.470       .  S
C174        C175   1.402       .  A
C175        C176   1.392       .  A
C175        H180   1.083       .  S
C176        C177   1.405       .  A
C176        H181   1.083       .  S
C177        C178   1.403       .  A
C178        H182   1.083       .  S
C179        C184   1.398       .  A
C179        C188   1.404       .  A
C184        C185   1.382       .  A
C184        H189   1.081       .  S
C185        C186   1.406       .  A
C185        H190   1.083       .  S
C186        C187   1.409       .  A
C187        C188   1.398       .  A
C187        H191   1.078       .  S
C188        H192   1.083       .  S
C193        C194   1.399       .  A
C193        C198   1.391       .  A
C193        H203   1.083       .  S
C194        C199   1.460       .  S
C194        C195   1.401       .  A
C195        C196   1.395       .  A
C195        H200   1.084       .  S
C196        C197   1.404       .  A
C196        H201   1.083       .  S
C197        C198   1.402       .  A
C198        H202   1.083       .  S
C199        C204   1.396       .  A
C199        C208   1.398       .  A
C204        C205   1.387       .  A
C204        H209   1.084       .  S
C205        C206   1.409       .  A
C205        H210   1.084       .  S
C206        C207   1.411       .  A
C207        C208   1.397       .  A
C207        H211   1.077       .  S
C208        H212   1.083       .  S
C213        C214   1.411       .  A
C213        C218   1.411       .  A
C213        H223   1.083       .  S
C214        C219   1.510       .  S
C214        C215   1.408       .  A
C215        C216   1.408       .  A
C215        H220   1.082       .  S
C216        C217   1.409       .  A
C216        H221   1.081       .  S
C217        C218   1.410       .  A
C218        H222   1.083       .  S
C219        C224   1.409       .  A
C219        C228   1.406       .  A
C224        C225   1.411       .  A
C224        H229   1.082       .  S
C225        C226   1.412       .  A
C225        H230   1.079       .  S
C226        C227   1.417       .  A
C227        C228   1.408       .  A
C227        H231   1.080       .  S
C228        H232   1.083       .  S
C233        C234   1.413       .  A
C233        C238   1.415       .  A
C233        H243   1.083       .  S
C234        C239   1.515       .  S
C234        C235   1.408       .  A
C235        C236   1.406       .  A
C235        H240   1.082       .  S
C236        C237   1.413       .  A
C236        H241   1.082       .  S
C237        C238   1.410       .  A
C238        H242   1.080       .  S
C239        C244   1.412       .  A
C239        C248   1.411       .  A
C244        C245   1.409       .  A
C244        H249   1.082       .  S
C245        C246   1.408       .  A
C245        H250   1.083       .  S
C246        C247   1.409       .  A
C247        C248   1.411       .  A
C247        H251   1.083       .  S
C248        H252   1.082       .  S
C253        C254   1.403       .  A
C253        C258   1.392       .  A
C253        H263   1.084       .  S
C254        C259   1.465       .  S
C254        C255   1.400       .  A
C255        C256   1.390       .  A
C255        H260   1.083       .  S
C256        C257   1.404       .  A
C256        H261   1.083       .  S
C257        C258   1.403       .  A
C258        H262   1.083       .  S
C259        C264   1.396       .  A
C259        C268   1.403       .  A
C264        C265   1.382       .  A
C264        H269   1.080       .  S
C265        C266   1.408       .  A
C265        H270   1.084       .  S
C266        C267   1.407       .  A
C267        C268   1.397       .  A
C267        H271   1.078       .  S
C268        H272   1.083       .  S
C273        C274   1.408       .  A
C273        C278   1.408       .  A
C273        H283   1.081       .  S
C274        C279   1.509       .  S
C274        C275   1.411       .  A
C275        C276   1.409       .  A
C275        H280   1.083       .  S
C276        C277   1.409       .  A
C276        H281   1.083       .  S
C277        C278   1.408       .  A
C278        H282   1.080       .  S
C279        C284   1.410       .  A
C279        C288   1.404       .  A
C284        C285   1.412       .  A
C284        H289   1.083       .  S
C285        C286   1.412       .  A
C285        H290   1.078       .  S
C286        C287   1.416       .  A
C287        C288   1.404       .  A
C287        H291   1.079       .  S
C288        H292   1.083       .  S
C293        C294   1.396       .  A
C293        C298   1.384       .  A
C293        H303   1.083       .  S
C294        C299   1.454       .  S
C294        C295   1.397       .  A
C295        C296   1.395       .  A
C295        H300   1.083       .  S
C296        C297   1.412       .  A
C296        H301   1.076       .  S
C297        C298   1.407       .  A
C298        H302   1.084       .  S
C299        C304   1.399       .  A
C299        C308   1.399       .  A
C304        C305   1.390       .  A
C304        H309   1.084       .  S
C305        C306   1.403       .  A
C305        H310   1.083       .  S
C306        C307   1.403       .  A
C307        C308   1.391       .  A
C307        H311   1.083       .  S
C308        H312   1.084       .  S
C313        C314   1.408       .  A
C313        C318   1.408       .  A
C313        H323   1.083       .  S
C314        C319   1.506       .  S
C314        C315   1.410       .  A
C315        C316   1.408       .  A
C315        H320   1.083       .  S
C316        C317   1.408       .  A
C316        H321   1.083       .  S
C317        C318   1.409       .  A
C318        H322   1.083       .  S
C319        C324   1.405       .  A
C319        C328   1.411       .  A
C324        C325   1.404       .  A
C324        H329   1.083       .  S
C325        C326   1.413       .  A
C325        H330   1.082       .  S
C326        C327   1.408       .  A
C327        C328   1.412       .  A
C327        H331   1.081       .  S
C328        H332   1.082       .  S
C333        C334   1.398       .  A
C333        C338   1.385       .  A
C333        H343   1.080       .  S
C334        C339   1.472       .  S
C334        C335   1.403       .  A
C335        C336   1.399       .  A
C335        H340   1.083       .  S
C336        C337   1.410       .  A
C336        H341   1.078       .  S
C337        C338   1.406       .  A
C338        H342   1.082       .  S
C339        C344   1.404       .  A
C339        C348   1.402       .  A
C344        C345   1.392       .  A
C344        H349   1.084       .  S
C345        C346   1.404       .  A
C345        H350   1.083       .  S
C346        C347   1.405       .  A
C347        C348   1.393       .  A
C347        H351   1.083       .  S
C348        H352   1.083       .  S
C353        C354   1.411       .  A
C353        C358   1.408       .  A
C353        H363   1.082       .  S
C354        C359   1.512       .  S
C354        C355   1.411       .  A
C355        C356   1.410       .  A
C355        H360   1.083       .  S
C356        C357   1.409       .  A
C356        H361   1.083       .  S
C357        C358   1.408       .  A
C358        H362   1.083       .  S
C359        C364   1.409       .  A
C359        C368   1.412       .  A
C364        C365   1.406       .  A
C364        H369   1.083       .  S
C365        C366   1.410       .  A
C365        H370   1.083       .  S
C366        C367   1.407       .  A
C367        C368   1.412       .  A
C367        H371   1.080       .  S
C368        H372   1.082       .  S
C373        C374   1.406       .  A
C373        C378   1.392       .  A
C373        H383   1.083       .  S
C374        C379   1.474       .  S
C374        C375   1.403       .  A
C375        C376   1.391       .  A
C375        H380   1.083       .  S
C376        C377   1.404       .  A
C376        H381   1.083       .  S
C377        C378   1.402       .  A
C378        H382   1.082       .  S
C379        C384   1.404       .  A
C379        C388   1.401       .  A
C384        C385   1.390       .  A
C384        H389   1.082       .  S
C385        C386   1.404       .  A
C385        H390   1.083       .  S
C386        C387   1.409       .  A
C387        C388   1.391       .  A
C387        H391   1.080       .  S
C388        H392   1.083       .  S
C393        C394   1.411       .  A
C393        C398   1.414       .  A
C393        H403   1.083       .  S
C394        C399   1.518       .  S
C394        C395   1.412       .  A
C395        C396   1.411       .  A
C395        H400   1.082       .  S
C396        C397   1.409       .  A
C396        H401   1.083       .  S
C397        C398   1.410       .  A
C398        H402   1.083       .  S
C399        C404   1.408       .  A
C399        C408   1.413       .  A
C404        C405   1.409       .  A
C404        H409   1.083       .  S
C405        C406   1.414       .  A
C405        H410   1.081       .  S
C406        C407   1.410       .  A
C407        C408   1.416       .  A
C407        H411   1.081       .  S
C408        H412   1.082       .  S
C413        C414   1.401       .  A
C413        C418   1.392       .  A
C413        H423   1.083       .  S
C414        C419   1.475       .  S
C414        C415   1.405       .  A
C415        C416   1.389       .  A
C415        H420   1.082       .  S
C416        C417   1.404       .  A
C416        H421   1.083       .  S
C417        C418   1.410       .  A
C418        H422   1.079       .  S
C419        C424   1.402       .  A
C419        C428   1.407       .  A
C424        C425   1.389       .  A
C424        H429   1.083       .  S
C425        C426   1.404       .  A
C425        H430   1.083       .  S
C426        C427   1.402       .  A
C427        C428   1.394       .  A
C427        H431   1.082       .  S
C428        H432   1.083       .  S
C433        C434   1.405       .  A
C433        C438   1.390       .  A
C433        H443   1.082       .  S
C434        C439   1.475       .  S
C434        C435   1.404       .  A
C435        C436   1.391       .  A
C435        H440   1.083       .  S
C436        C437   1.404       .  A
C436        H441   1.083       .  S
C437        C438   1.401       .  A
C438        H442   1.082       .  S
C439        C444   1.404       .  A
C439        C448   1.402       .  A
C444        C445   1.389       .  A
C444        H449   1.082       .  S
C445        C446   1.405       .  A
C445        H450   1.083       .  S
C446        C447   1.408       .  A
C447        C448   1.391       .  A
C447        H451   1.080       .  S
C448        H452   1.083       .  S
C453        C454   1.414       .  A
C453        C458   1.412       .  A
C453        H463   1.082       .  S
C454        C459   1.524       .  S
C454        C455   1.413       .  A
C455        C456   1.414       .  A
C455        H460   1.082       .  S
C456        C457   1.410       .  A
C456        H461   1.083       .  S
C457        C458   1.409       .  A
C458        H462   1.083       .  S
C459        C464   1.411       .  A
C459        C468   1.415       .  A
C464        C465   1.409       .  A
C464        H469   1.081       .  S
C465        C466   1.411       .  A
C465        H470   1.083       .  S
C466        C467   1.409       .  A
C467        C468   1.416       .  A
C467        H471   1.078       .  S
C468        H472   1.083       .  S
O473       Cu481   1.978   1_545  S
O473        C483   1.274       .  A
O474       Cu481   1.982       .  S
O474        C484   1.275       .  A
O475       Cu481   2.063       .  S
O475        C485   1.285       .  A
O476       Cu481   2.065   1_545  S
O476        C486   1.285       .  A
O477       Cu482   2.040   1_545  S
O477        C486   1.281       .  A
O478       Cu482   2.041       .  S
O478        C485   1.281       .  A
O479       Cu482   2.003       .  S
O479        C484   1.278       .  A
O480       Cu482   1.996   1_545  S
O480        C483   1.277       .  A
Cu481      Cu482   2.366       .  S
C483        C909   1.467       .  S
C484        C898   1.471       .  S
C485        C869   1.507       .  S
C486        C929   1.510       .  S
C487        C488   1.517       .  S
C487        C493   1.550       .  S
C487        C491   1.532       .  S
C487        C918   1.511       .  S
C488        H495   1.087       .  S
C489        C490   1.564       .  S
C490        C494   1.553       .  S
C490        C492   1.565       .  S
C490        H496   1.110       .  S
C491        H497   1.082       .  S
C494        C938   1.517       .  S
C499        C500   1.519       .  S
C499        C505   1.550       .  S
C499        C503   1.532       .  S
C499        C889   1.518       .  S
C500        H507   1.087       .  S
C501        C502   1.563   1_554  S
C502        C506   1.554       .  S
C502        C504   1.561   1_556  S
C502        H508   1.108       .  S
C503        H509   1.080       .  S
C506        C878   1.521       .  S
O511       Cu519   2.036       .  S
O511        C521   1.281       .  A
O512       Cu519   2.037   1_565  S
O512        C522   1.281       .  A
O513       Cu519   1.992   1_565  S
O513        C523   1.276       .  A
O514       Cu519   1.991       .  S
O514        C524   1.277       .  A
O515       Cu520   1.986   1_545  S
O515        C524   1.275       .  A
O516       Cu520   1.987       .  S
O516        C523   1.276       .  A
O517       Cu520   2.048       .  S
O517        C522   1.283       .  A
O518       Cu520   2.047   1_545  S
O518        C521   1.283       .  A
Cu519      Cu520   2.367   1_545  S
C521        C829   1.501       .  S
C522        C789   1.502       .  S
C523        C818   1.468       .  S
C524        C849   1.468       .  S
C525        C526   1.518       .  S
C525        C531   1.548       .  S
C525        C529   1.532       .  S
C525        C858   1.514       .  S
C526        H533   1.085       .  S
C527        C528   1.564   1_554  S
C528        C532   1.552       .  S
C528        C530   1.561   1_556  S
C528        H534   1.109       .  S
C529        H535   1.080       .  S
C532        C838   1.515       .  S
C537        C538   1.528       .  S
C537        C543   1.542       .  S
C537        C541   1.527       .  S
C537        C809   1.513       .  S
C538        H545   1.078       .  S
C539        C540   1.559       .  S
C540        C544   1.548       .  S
C540        C542   1.563       .  S
C540        H546   1.109       .  S
C541        H547   1.084       .  S
C544        C798   1.509       .  S
O549       Cu557   2.032   1_455  S
O549        C559   1.281       .  A
O550       Cu557   2.031       .  S
O550        C560   1.280       .  A
O551       Cu557   1.991       .  S
O551        C561   1.277       .  A
O552       Cu557   1.982   1_455  S
O552        C562   1.276       .  A
O553       Cu558   1.992   1_455  S
O553        C562   1.276       .  A
O554       Cu558   1.981       .  S
O554        C561   1.275       .  A
O555       Cu558   2.043       .  S
O555        C560   1.282       .  A
O556       Cu558   2.048   1_455  S
O556        C559   1.283       .  A
Cu557      Cu558   2.370       .  S
C559        C749   1.503       .  S
C560        C718   1.495       .  S
C561        C729   1.466       .  S
C562        C778   1.464       .  S
C563        C564   1.527       .  S
C563        C569   1.541       .  S
C563        C567   1.527       .  S
C563        C769   1.516       .  S
C564        H571   1.077       .  S
C565        C566   1.567   1_554  S
C566        C570   1.561       .  S
C566        C568   1.571   1_556  S
C566        H572   1.108       .  S
C567        H573   1.077       .  S
C570        C758   1.526       .  S
C575        C576   1.527       .  S
C575        C581   1.546       .  S
C575        C579   1.527       .  S
C575        C738   1.512       .  S
C576        H583   1.079       .  S
C577        C578   1.561       .  S
C578        C582   1.549       .  S
C578        C580   1.559       .  S
C578        H584   1.109       .  S
C579        H585   1.085       .  S
C582        C709   1.512       .  S
O587       Cu595   1.992   1_455  S
O587        C597   1.276       .  A
O588       Cu595   1.987       .  S
O588        C598   1.276       .  A
O589       Cu595   2.047       .  S
O589        C599   1.283       .  A
O590       Cu595   2.048   1_455  S
O590        C600   1.284       .  A
O591       Cu596   2.029   1_455  S
O591        C600   1.280       .  A
O592       Cu596   2.032       .  S
O592        C599   1.281       .  A
O593       Cu596   1.997       .  S
O593        C598   1.277       .  A
O594       Cu596   1.991   1_455  S
O594        C597   1.277       .  A
Cu595      Cu596   2.369       .  S
C597        C669   1.465       .  S
C598        C649   1.471       .  S
C599        C638   1.500       .  S
C600        C689   1.503       .  S
C601        C602   1.526       .  S
C601        C607   1.544       .  S
C601        C605   1.527       .  S
C601        C678   1.515       .  S
C602        H609   1.080       .  S
C603        C604   1.572       .  S
C604        C608   1.559       .  S
C604        C606   1.569       .  S
C604        H610   1.108       .  S
C605        H611   1.079       .  S
C608        C698   1.526       .  S
C613        C614   1.530       .  S
C613        C619   1.542       .  S
C613        C617   1.527       .  S
C613        C658   1.516       .  S
C614        H621   1.077       .  S
C615        C616   1.562   1_554  S
C616        C620   1.549       .  S
C616        C618   1.562   1_556  S
C616        H622   1.109       .  S
C617        H623   1.085       .  S
C620        C629   1.510       .  S
C625        C626   1.411       .  A
C625        C630   1.412       .  A
C625        H635   1.083       .  S
C626        C631   1.508       .  S
C626        C627   1.407       .  A
C627        C628   1.403       .  A
C627        H632   1.082       .  S
C628        C629   1.411       .  A
C628        H633   1.082       .  S
C629        C630   1.408       .  A
C630        H634   1.079       .  S
C631        C636   1.410       .  A
C631        C640   1.410       .  A
C636        C637   1.410       .  A
C636        H641   1.083       .  S
C637        C638   1.409       .  A
C637        H642   1.083       .  S
C638        C639   1.407       .  A
C639        C640   1.405       .  A
C639        H643   1.083       .  S
C640        H644   1.081       .  S
C645        C646   1.404       .  A
C645        C650   1.393       .  A
C645        H655   1.083       .  S
C646        C651   1.472       .  S
C646        C647   1.402       .  A
C647        C648   1.393       .  A
C647        H652   1.083       .  S
C648        C649   1.406       .  A
C648        H653   1.083       .  S
C649        C650   1.403       .  A
C650        H654   1.083       .  S
C651        C656   1.398       .  A
C651        C660   1.405       .  A
C656        C657   1.385       .  A
C656        H661   1.082       .  S
C657        C658   1.408       .  A
C657        H662   1.083       .  S
C658        C659   1.408       .  A
C659        C660   1.400       .  A
C659        H663   1.078       .  S
C660        H664   1.083       .  S
C665        C666   1.402       .  A
C665        C670   1.391       .  A
C665        H675   1.084       .  S
C666        C671   1.464       .  S
C666        C667   1.401       .  A
C667        C668   1.394       .  A
C667        H672   1.083       .  S
C668        C669   1.404       .  A
C668        H673   1.083       .  S
C669        C670   1.403       .  A
C670        H674   1.083       .  S
C671        C676   1.397       .  A
C671        C680   1.401       .  A
C676        C677   1.383       .  A
C676        H681   1.081       .  S
C677        C678   1.406       .  A
C677        H682   1.084       .  S
C678        C679   1.411       .  A
C679        C680   1.398       .  A
C679        H683   1.078       .  S
C680        H684   1.083       .  S
C685        C686   1.408       .  A
C685        C690   1.408       .  A
C685        H695   1.083       .  S
C686        C691   1.502       .  S
C686        C687   1.406       .  A
C687        C688   1.407       .  A
C687        H692   1.081       .  S
C688        C689   1.410       .  A
C688        H693   1.081       .  S
C689        C690   1.409       .  A
C690        H694   1.083       .  S
C691        C696   1.408       .  A
C691        C700   1.402       .  A
C696        C697   1.413       .  A
C696        H701   1.083       .  S
C697        C698   1.413       .  A
C697        H702   1.078       .  S
C698        C699   1.417       .  A
C699        C700   1.404       .  A
C699        H703   1.079       .  S
C700        H704   1.083       .  S
C705        C706   1.412       .  A
C705        C710   1.411       .  A
C705        H715   1.082       .  S
C706        C711   1.507       .  S
C706        C707   1.406       .  A
C707        C708   1.401       .  A
C707        H712   1.082       .  S
C708        C709   1.412       .  A
C708        H713   1.081       .  S
C709        C710   1.409       .  A
C710        H714   1.080       .  S
C711        C716   1.411       .  A
C711        C720   1.410       .  A
C716        C717   1.404       .  A
C716        H721   1.082       .  S
C717        C718   1.405       .  A
C717        H722   1.083       .  S
C718        C719   1.408       .  A
C719        C720   1.408       .  A
C719        H723   1.083       .  S
C720        H724   1.082       .  S
C725        C726   1.403       .  A
C725        C730   1.391       .  A
C725        H735   1.084       .  S
C726        C731   1.466       .  S
C726        C727   1.401       .  A
C727        C728   1.390       .  A
C727        H732   1.083       .  S
C728        C729   1.404       .  A
C728        H733   1.083       .  S
C729        C730   1.403       .  A
C730        H734   1.083       .  S
C731        C736   1.398       .  A
C731        C740   1.402       .  A
C736        C737   1.383       .  A
C736        H741   1.079       .  S
C737        C738   1.405       .  A
C737        H742   1.083       .  S
C738        C739   1.410       .  A
C739        C740   1.396       .  A
C739        H743   1.077       .  S
C740        H744   1.083       .  S
C745        C746   1.408       .  A
C745        C750   1.406       .  A
C745        H755   1.078       .  S
C746        C751   1.512       .  S
C746        C747   1.412       .  A
C747        C748   1.410       .  A
C747        H752   1.083       .  S
C748        C749   1.409       .  A
C748        H753   1.083       .  S
C749        C750   1.408       .  A
C750        H754   1.082       .  S
C751        C756   1.411       .  A
C751        C760   1.406       .  A
C756        C757   1.413       .  A
C756        H761   1.083       .  S
C757        C758   1.411       .  A
C757        H762   1.078       .  S
C758        C759   1.416       .  A
C759        C760   1.406       .  A
C759        H763   1.080       .  S
C760        H764   1.083       .  S
C765        C766   1.397       .  A
C765        C770   1.385       .  A
C765        H775   1.083       .  S
C766        C771   1.459       .  S
C766        C767   1.398       .  A
C767        C768   1.397       .  A
C767        H772   1.083       .  S
C768        C769   1.412       .  A
C768        H773   1.077       .  S
C769        C770   1.407       .  A
C770        H774   1.084       .  S
C771        C776   1.399       .  A
C771        C780   1.400       .  A
C776        C777   1.388       .  A
C776        H781   1.083       .  S
C777        C778   1.403       .  A
C777        H782   1.083       .  S
C778        C779   1.405       .  A
C779        C780   1.395       .  A
C779        H783   1.083       .  S
C780        H784   1.083       .  S
C785        C786   1.410       .  A
C785        C790   1.408       .  A
C785        H795   1.082       .  S
C786        C791   1.509       .  S
C786        C787   1.410       .  A
C787        C788   1.408       .  A
C787        H792   1.083       .  S
C788        C789   1.409       .  A
C788        H793   1.083       .  S
C789        C790   1.408       .  A
C790        H794   1.083       .  S
C791        C796   1.408       .  A
C791        C800   1.410       .  A
C796        C797   1.406       .  A
C796        H801   1.082       .  S
C797        C798   1.411       .  A
C797        H802   1.083       .  S
C798        C799   1.407       .  A
C799        C800   1.409       .  A
C799        H803   1.077       .  S
C800        H804   1.083       .  S
C805        C806   1.397       .  A
C805        C810   1.383       .  A
C805        H815   1.080       .  S
C806        C811   1.469       .  S
C806        C807   1.404       .  A
C807        C808   1.398       .  A
C807        H812   1.083       .  S
C808        C809   1.408       .  A
C808        H813   1.078       .  S
C809        C810   1.406       .  A
C810        H814   1.082       .  S
C811        C816   1.404       .  A
C811        C820   1.401       .  A
C816        C817   1.392       .  A
C816        H821   1.084       .  S
C817        C818   1.404       .  A
C817        H822   1.083       .  S
C818        C819   1.404       .  A
C819        C820   1.392       .  A
C819        H823   1.083       .  S
C820        H824   1.083       .  S
C825        C826   1.410       .  A
C825        C830   1.407       .  A
C825        H835   1.083       .  S
C826        C831   1.509       .  S
C826        C827   1.410       .  A
C827        C828   1.410       .  A
C827        H832   1.083       .  S
C828        C829   1.409       .  A
C828        H833   1.083       .  S
C829        C830   1.408       .  A
C830        H834   1.083       .  S
C831        C836   1.407       .  A
C831        C840   1.411       .  A
C836        C837   1.405       .  A
C836        H841   1.083       .  S
C837        C838   1.412       .  A
C837        H842   1.082       .  S
C838        C839   1.409       .  A
C839        C840   1.413       .  A
C839        H843   1.080       .  S
C840        H844   1.083       .  S
C845        C846   1.406       .  A
C845        C850   1.391       .  A
C845        H855   1.083       .  S
C846        C851   1.476       .  S
C846        C847   1.404       .  A
C847        C848   1.392       .  A
C847        H852   1.083       .  S
C848        C849   1.404       .  A
C848        H853   1.083       .  S
C849        C850   1.402       .  A
C850        H854   1.082       .  S
C851        C856   1.404       .  A
C851        C860   1.402       .  A
C856        C857   1.390       .  A
C856        H861   1.082       .  S
C857        C858   1.404       .  A
C857        H862   1.083       .  S
C858        C859   1.409       .  A
C859        C860   1.392       .  A
C859        H863   1.079       .  S
C860        H864   1.083       .  S
C865        C866   1.411       .  A
C865        C870   1.412       .  A
C865        H875   1.082       .  S
C866        C871   1.516       .  S
C866        C867   1.412       .  A
C867        C868   1.411       .  A
C867        H872   1.082       .  S
C868        C869   1.410       .  A
C868        H873   1.083       .  S
C869        C870   1.409       .  A
C870        H874   1.083       .  S
C871        C876   1.408       .  A
C871        C880   1.412       .  A
C876        C877   1.409       .  A
C876        H881   1.083       .  S
C877        C878   1.415       .  A
C877        H882   1.082       .  S
C878        C879   1.409       .  A
C879        C880   1.413       .  A
C879        H883   1.080       .  S
C880        H884   1.082       .  S
C885        C886   1.402       .  A
C885        C890   1.393       .  A
C885        H895   1.083       .  S
C886        C891   1.478       .  S
C886        C887   1.405       .  A
C887        C888   1.391       .  A
C887        H892   1.082       .  S
C888        C889   1.405       .  A
C888        H893   1.083       .  S
C889        C890   1.410       .  A
C890        H894   1.079       .  S
C891        C896   1.403       .  A
C891        C900   1.407       .  A
C896        C897   1.392       .  A
C896        H901   1.083       .  S
C897        C898   1.405       .  A
C897        H902   1.083       .  S
C898        C899   1.402       .  A
C899        C900   1.394       .  A
C899        H903   1.083       .  S
C900        H904   1.083       .  S
C905        C906   1.405       .  A
C905        C910   1.391       .  A
C905        H915   1.083       .  S
C906        C911   1.473       .  S
C906        C907   1.403       .  A
C907        C908   1.390       .  A
C907        H912   1.083       .  S
C908        C909   1.404       .  A
C908        H913   1.083       .  S
C909        C910   1.402       .  A
C910        H914   1.082       .  S
C911        C916   1.404       .  A
C911        C920   1.402       .  A
C916        C917   1.388       .  A
C916        H921   1.082       .  S
C917        C918   1.404       .  A
C917        H922   1.083       .  S
C918        C919   1.408       .  A
C919        C920   1.392       .  A
C919        H923   1.080       .  S
C920        H924   1.083       .  S
C925        C926   1.411       .  A
C925        C930   1.410       .  A
C925        H935   1.082       .  S
C926        C931   1.518       .  S
C926        C927   1.413       .  A
C927        C928   1.414       .  A
C927        H932   1.082       .  S
C928        C929   1.410       .  A
C928        H933   1.083       .  S
C929        C930   1.409       .  A
C930        H934   1.083       .  S
C931        C936   1.409       .  A
C931        C940   1.414       .  A
C936        C937   1.407       .  A
C936        H941   1.082       .  S
C937        C938   1.411       .  A
C937        H942   1.083       .  S
C938        C939   1.409       .  A
C939        C940   1.416       .  A
C939        H943   1.079       .  S
C940        H944   1.083       .  S
