geometry optimzed in LAMMPS
_audit_creation_date              2020-11-30 
_audit_creation_method            'lammps2cif' 
_symmetry_space_group_name_H-M    'P1' 
_symmetry_Int_Tables_number       1 
_symmetry_cell_setting            triclinic 
loop_ 
_symmetry_equiv_pos_as_xyz 
  x,y,z 
_cell_length_a                    33.220514159751566 
_cell_length_b                    33.00435917456509 
_cell_length_c                    33.07984666730513 
_cell_angle_alpha                 89.77224324995896 
_cell_angle_beta                  90.36151942378628 
_cell_angle_gamma                 89.5763237538228 
loop_ 
_atom_site_label 
_atom_site_type_symbol 
_atom_site_fract_x 
_atom_site_fract_y 
_atom_site_fract_z 
_atom_site_charge 
O1          O  0.00638106  0.44222246  0.47070942    -0.73070
O2          O  0.00701309  0.55037243  0.52635152    -0.74050
O3          O  0.00580235  0.52409310  0.44421080    -0.62670
O4          O  0.00779276  0.46880910  0.55223014    -0.71080
O5          O  0.07379675  0.46757505  0.55167499    -0.70630
O6          O  0.07252949  0.52448528  0.44392592    -0.61880
O7          O  0.07384524  0.54986082  0.52603062    -0.74390
O8          O  0.07307155  0.44203808  0.46935581    -0.73170
Cu9        Cu  0.00448267  0.49637723  0.49834012     1.04560
Cu10       Cu  0.07565546  0.49594387  0.49769732     1.04330
C11         C  0.03955364  0.42517516  0.46092061     0.93130
C12         C  0.04053538  0.56681285  0.53550025     0.92270
C13         C  0.03885291  0.53330034  0.42704557     0.84420
C14         C  0.04091522  0.45956527  0.56970447     0.90690
O15         O  0.35809809  0.81573239  0.55328895    -0.73070
O16         O  0.41453284  0.81375033  0.44577342    -0.74050
O17         O  0.43969623  0.81321100  0.52766376    -0.62670
O18         O  0.33287906  0.81551469  0.47134328    -0.71080
O19         O  0.33351460  0.88278086  0.47137530    -0.70630
O20         O  0.44102903  0.88047416  0.52637929    -0.61880
O21         O  0.41462145  0.88100239  0.44522865    -0.74390
O22         O  0.35999693  0.88294652  0.55249747    -0.73170
Cu23       Cu  0.38625959  0.81213893  0.49952899     1.04560
Cu24       Cu  0.38733603  0.88409716  0.49883628     1.04330
C25         C  0.34984158  0.84986063  0.56957886     0.93130
C26         C  0.42383452  0.84727455  0.42883537     0.92270
C27         C  0.45722978  0.84649507  0.53581839     0.84420
C28         C  0.31624046  0.84946582  0.46267968     0.90690
O29         O  0.77103964  0.44992449  0.53080768    -0.73070
O30         O  0.76457853  0.55862358  0.47669609    -0.74050
O31         O  0.76510006  0.53139691  0.55783993    -0.62670
O32         O  0.77058934  0.47763532  0.44958737    -0.71080
O33         O  0.70419364  0.47146386  0.44902422    -0.70630
O34         O  0.69830671  0.52890703  0.55576181    -0.61880
O35         O  0.69816422  0.55387729  0.47293231    -0.74390
O36         O  0.70442293  0.44684943  0.53139116    -0.73170
Cu37       Cu  0.77009371  0.50451597  0.50382651     1.04560
Cu38       Cu  0.69889013  0.50014596  0.50224044     1.04090
C39         C  0.73877950  0.43134846  0.54010378     0.93130
C40         C  0.73055161  0.57314192  0.46546661     0.92270
C41         C  0.73090543  0.53907913  0.57359404     0.84420
C42         C  0.73833726  0.46566102  0.43233349     0.90690
O43         O  0.35846110  0.55197336  0.17892750    -0.73070
O44         O  0.42057808  0.44861251  0.18564246    -0.74050
O45         O  0.44242109  0.53217526  0.17966267    -0.62670
O46         O  0.33782916  0.46948227  0.18163730    -0.71080
O47         O  0.33736516  0.47137386  0.11488600    -0.70630
O48         O  0.44438822  0.52584610  0.11292199    -0.61880
O49         O  0.41887606  0.44325266  0.11877862    -0.74390
O50         O  0.36256988  0.55262182  0.11226178    -0.73170
Cu51       Cu  0.38996519  0.50068329  0.18381494     1.04560
Cu52       Cu  0.39092939  0.49804778  0.11237645     1.04330
C53         C  0.35026818  0.56879129  0.14512382     0.93130
C54         C  0.42884799  0.42908302  0.15359793     0.92270
C55         C  0.45979631  0.53875842  0.14575367     0.84420
C56         C  0.32044562  0.46164829  0.14793696     0.90690
C57         C  0.17062868  0.37383709  0.15076007     0.03010
C58         C  0.17193222  0.34246940  0.17934003    -0.13140
C59         C  0.13889383  0.31704322  0.18443792     0.00510
C60         C  0.10456714  0.32255029  0.16018961    -0.11670
C61         C  0.10328505  0.35320734  0.13079776     0.03000
C62         C  0.13627160  0.37917917  0.12625260    -0.11090
H63         H  0.19848336  0.33841063  0.19821271     0.08590
H64         H  0.07894547  0.30274131  0.16388808     0.06120
H65         H  0.13529154  0.40316274  0.10379522     0.05970
C66         C  0.02208610  0.34589935  0.78719727     0.03010
C67         C  0.02036504  0.37305861  0.75442645    -0.13140
C68         C  0.04270231  0.36525856  0.71922311     0.00510
C69         C  0.06705185  0.33036546  0.71757994    -0.11670
C70         C  0.07127706  0.30499078  0.75132613     0.03000
C71         C  0.04849430  0.31264416  0.78596521    -0.11090
H72         H  0.00120731  0.39970182  0.75609185     0.08590
H73         H  0.08432965  0.32406960  0.69059232     0.06120
H74         H  0.05095313  0.29246950  0.81182397     0.05970
C75         C  0.73744905  0.37299088  0.28523372     0.03010
C76         C  0.70926527  0.34179200  0.28747892    -0.13140
C77         C  0.70369653  0.31548075  0.25494110     0.00510
C78         C  0.72695547  0.32015060  0.22007570    -0.11670
C79         C  0.75573792  0.35089836  0.21771636     0.03000
C80         C  0.76090597  0.37753340  0.25035820    -0.11090
H81         H  0.69104729  0.33857063  0.31438065     0.08590
H82         H  0.72288125  0.29972271  0.19482282     0.06120
H83         H  0.78290542  0.40154450  0.24862187     0.05970
O84         O  0.93756294  0.39011928  0.02888326    -0.73070
O85         O  0.83140281  0.38728819  0.97101851    -0.74050
O86         O  0.85550648  0.38878874  0.05290610    -0.62670
O87         O  0.91335795  0.38849664  0.94664044    -0.71080
O88         O  0.91634562  0.32138974  0.94853349    -0.70630
O89         O  0.85639769  0.32148390  0.05364828    -0.61880
O90         O  0.83346952  0.32013965  0.97063378    -0.74390
O91         O  0.93877756  0.32294144  0.03126618    -0.73170
Cu92       Cu  0.88439350  0.39096935  0.99981152     1.04560
Cu93       Cu  0.88627974  0.31909937  0.00103956     1.04330
C94         C  0.95490796  0.35702347  0.03937380     0.93130
C95         C  0.81563600  0.35344124  0.96153513     0.92270
C96         C  0.84653715  0.35520313  0.06978600     0.84420
C97         C  0.92458413  0.35491578  0.93109197     0.90690
C98         C  0.60547322  0.63431739  0.15606719     0.03010
C99         C  0.60626880  0.66381883  0.18657149    -0.13140
C100        C  0.63707935  0.69237748  0.18803843     0.00510
C101        C  0.66805489  0.69077041  0.15983823    -0.11670
C102        C  0.67124938  0.65831370  0.13270317     0.03000
C103        C  0.63910102  0.63063898  0.13040587    -0.11090
H104        H  0.58203718  0.66554222  0.20830627     0.08590
H105        H  0.69074747  0.71419485  0.16022826     0.06120
H106        H  0.64006647  0.60642597  0.10862176     0.05970
C107        C  0.71949837  0.62991625  0.72187204     0.03010
C108        C  0.69191828  0.66223829  0.72116011    -0.13140
C109        C  0.69127841  0.69017080  0.75271128     0.00510
C110        C  0.71959388  0.68700834  0.78385148    -0.11670
C111        C  0.74472489  0.65271366  0.78756224     0.03000
C112        C  0.74386948  0.62364682  0.75633929    -0.11090
H113        H  0.67147743  0.66598287  0.69571549     0.08590
H114        H  0.72094303  0.71096440  0.80610984     0.06120
H115        H  0.76245582  0.59666391  0.75817930     0.05970
C116        C  0.02526392  0.65376697  0.21490246     0.03010
C117        C  0.02571420  0.62309890  0.24478423    -0.13140
C118        C  0.04811232  0.62800975  0.28059954     0.00510
C119        C  0.07425526  0.66086083  0.28441973    -0.11670
C120        C  0.07606416  0.69001130  0.25381761     0.03000
C121        C  0.04945547  0.68800701  0.22103556    -0.11090
H122        H  0.00816906  0.59589146  0.24087603     0.08590
H123        H  0.09336020  0.66346821  0.31096379     0.06120
H124        H  0.04891227  0.71273643  0.19941032     0.05970
O125        O  0.83495505  0.68352578  0.02999776    -0.73070
O126        O  0.93859971  0.68413033  0.96836104    -0.74050
O127        O  0.85579369  0.68328812  0.94704556    -0.62670
O128        O  0.91790695  0.68410072  0.05151554    -0.71080
O129        O  0.91838030  0.61683063  0.05230057    -0.70630
O130        O  0.85714876  0.61601213  0.94715524    -0.61880
O131        O  0.94012928  0.61683636  0.96924536    -0.74390
O132        O  0.83529909  0.61622757  0.02999931    -0.73170
Cu133      Cu  0.88680247  0.68609826  0.99922284     1.04560
Cu134      Cu  0.88780331  0.61411332  0.99970461     1.04330
C135        C  0.81874008  0.64988733  0.03960564     0.93130
C136        C  0.95559169  0.65066289  0.95895571     0.92270
C137        C  0.84634996  0.64954942  0.93086598     0.84420
C138        C  0.92810996  0.65058134  0.06826812     0.90690
C139        C  0.66734270  0.34834647  0.87017380     0.03010
C140        C  0.67020355  0.32042676  0.83860100    -0.13140
C141        C  0.63895394  0.31695452  0.81053271     0.00510
C142        C  0.60556793  0.34263808  0.81286411    -0.11670
C143        C  0.60109661  0.36954922  0.84525891     0.03000
C144        C  0.63225473  0.37215169  0.87431986    -0.11090
H145        H  0.69667888  0.30119356  0.83610485     0.08590
H146        H  0.58225902  0.34071416  0.78986298     0.06120
H147        H  0.62954039  0.39272646  0.89959130     0.05970
C148        C  0.16841928  0.63548395  0.84318804     0.03010
C149        C  0.13371583  0.63107055  0.86692319    -0.13140
C150        C  0.10186860  0.65946596  0.86427930     0.00510
C151        C  0.10557036  0.69215879  0.83715322    -0.11670
C152        C  0.13799965  0.69421174  0.81053886     0.03000
C153        C  0.16937974  0.66604895  0.81373162    -0.11090
H154        H  0.13182293  0.60570749  0.88759063     0.08590
H155        H  0.08256184  0.71556457  0.83577130     0.06120
H156        H  0.19496863  0.66830412  0.79367317     0.05970
O157        O  0.41323833  0.55052995  0.88199151    -0.73070
O158        O  0.35414437  0.44441558  0.88069102    -0.74050
O159        O  0.43644237  0.46794431  0.87830918    -0.62670
O160        O  0.33111972  0.52747037  0.88566763    -0.71080
O161        O  0.32691637  0.52862810  0.81863581    -0.70630
O162        O  0.43435434  0.47183579  0.81126935    -0.61880
O163        O  0.35299404  0.44660403  0.81372472    -0.74390
O164        O  0.40810018  0.55378593  0.81593077    -0.73170
Cu165      Cu  0.38388232  0.49740270  0.88399787     1.04560
Cu166      Cu  0.38048846  0.50027084  0.81257243     1.04330
C167        C  0.41975762  0.56957724  0.84903777     0.93130
C168        C  0.34406155  0.42886698  0.84678322     0.92270
C169        C  0.45210567  0.46083495  0.84391863     0.84420
C170        C  0.31255509  0.53760036  0.85325447     0.90690
C171        C  0.55282208  0.21801997  0.13794536     0.03010
C172        C  0.52359846  0.24937055  0.13589741    -0.13140
C173        C  0.52391031  0.28126081  0.16424143     0.00510
C174        C  0.55123314  0.27908097  0.19667248    -0.11670
C175        C  0.58215173  0.25041602  0.19702828     0.03000
C176        C  0.58380807  0.22098616  0.16693170    -0.11090
H177        H  0.50101976  0.24913627  0.11226169     0.08590
H178        H  0.55016995  0.30159608  0.22044030     0.06120
H179        H  0.60852772  0.19936991  0.16708960     0.05970
C180        C  0.51270402  0.71903337  0.84720867     0.03010
C181        C  0.54687117  0.71775551  0.82239612    -0.13140
C182        C  0.57041516  0.75227847  0.81684343     0.00510
C183        C  0.56209204  0.78716877  0.83913558    -0.11670
C184        C  0.52989601  0.78802685  0.86615463     0.03000
C185        C  0.50422113  0.75457760  0.86908168    -0.11090
H186        H  0.55370032  0.69050259  0.80548534     0.08590
H187        H  0.58112975  0.81352859  0.83601524     0.06120
H188        H  0.47826457  0.75604506  0.88869007     0.05970
C189        C  0.51614198  0.84404842  0.28165743     0.03010
C190        C  0.54935957  0.81771104  0.28208915    -0.13140
C191        C  0.57454819  0.81501314  0.24847875     0.00510
C192        C  0.56718563  0.83983992  0.21476216    -0.11670
C193        C  0.53385900  0.86630967  0.21372476     0.03000
C194        C  0.50794497  0.86777830  0.24720318    -0.11090
H195        H  0.55515800  0.79880409  0.30840157     0.08590
H196        H  0.58725092  0.83827347  0.18908492     0.06120
H197        H  0.48178029  0.88757350  0.24667772     0.05970
O198        O  0.56219126  0.96892559  0.05325158    -0.73070
O199        O  0.57256528  0.03116516  0.94729240    -0.74050
O200        O  0.57471754  0.05189152  0.03081404    -0.62670
O201        O  0.56374232  0.94888450  0.96956606    -0.71080
O202        O  0.49726773  0.95382820  0.97045274    -0.70630
O203        O  0.50870185  0.06211557  0.02718105    -0.61880
O204        O  0.50619752  0.03499812  0.94493945    -0.74390
O205        O  0.49617673  0.97985395  0.05224184    -0.73170
Cu206      Cu  0.57063286  0.99997430  0.00040773     1.04560
Cu207      Cu  0.49980354  0.00815249  0.99866693     1.04330
C208        C  0.52731140  0.96443352  0.06908438     0.93130
C209        C  0.54018292  0.04205059  0.92884136     0.92270
C210        C  0.54382914  0.07354118  0.03848354     0.84420
C211        C  0.52934776  0.93465128  0.96048182     0.90690
C212        C  0.24712090  0.71090424  0.15003768     0.03010
C213        C  0.22031011  0.71228417  0.18256508    -0.13140
C214        C  0.19772147  0.74737883  0.19006801     0.00510
C215        C  0.20199751  0.78114151  0.16485094    -0.11670
C216        C  0.22635765  0.77911432  0.13041150     0.03000
C217        C  0.24891684  0.74372412  0.12305560    -0.11090
H218        H  0.21799309  0.68645706  0.20275769     0.08590
H219        H  0.18480446  0.80848139  0.17090923     0.06120
H220        H  0.26845864  0.74203418  0.09700895     0.05970
C221        C  0.24592534  0.28346368  0.84549525     0.03010
C222        C  0.22261795  0.27557235  0.81074160    -0.13140
C223        C  0.19487864  0.24400291  0.81026257     0.00510
C224        C  0.19502186  0.21557681  0.84142225    -0.11670
C225        C  0.22075087  0.22044596  0.87455188     0.03000
C226        C  0.24378317  0.25579114  0.87809627    -0.11090
H227        H  0.22467019  0.29489271  0.78433167     0.08590
H228        H  0.17536651  0.18953138  0.83981767     0.06120
H229        H  0.26058393  0.26079119  0.90570241     0.05970
C230        C  0.25618748  0.84954853  0.71558724     0.03010
C231        C  0.22588095  0.82030192  0.71500530    -0.13140
C232        C  0.20028704  0.81567603  0.74808187     0.00510
C233        C  0.20474787  0.84085531  0.78170972    -0.11670
C234        C  0.23464350  0.87058555  0.78248170     0.03000
C235        C  0.26059162  0.87486375  0.74935834    -0.11090
H236        H  0.22262982  0.80074285  0.68894054     0.08590
H237        H  0.18478937  0.83750089  0.80729809     0.06120
H238        H  0.28392055  0.89763095  0.74984860     0.05970
O239        O  0.19417737  0.94419431  0.02335048    -0.73070
O240        O  0.19439661  0.05479893  0.97238978    -0.74050
O241        O  0.19785462  0.97380908  0.94294246    -0.62670
O242        O  0.19037148  0.02433859  0.05342374    -0.71080
O243        O  0.25638540  0.02754497  0.05531934    -0.70630
O244        O  0.26451694  0.97309997  0.94825772    -0.61880
O245        O  0.26109930  0.05464999  0.97514561    -0.74390
O246        O  0.25988223  0.94647697  0.02929756    -0.73170
Cu247      Cu  0.19180283  0.99936663  0.99781313     1.04560
Cu248      Cu  0.26267712  0.00053310  0.00210337     1.04330
C249        C  0.22707896  0.92758228  0.03492002     0.93130
C250        C  0.22800134  0.07201476  0.96537971     0.92270
C251        C  0.23241397  0.96447786  0.92882789     0.84420
C252        C  0.22258630  0.03378101  0.07228062     0.90690
C253        C  0.66778666  0.86135099  0.65343774     0.03010
C254        C  0.63940787  0.85724451  0.62177548    -0.13140
C255        C  0.60386196  0.83537291  0.62805669     0.00510
C256        C  0.59987128  0.81150425  0.66273677    -0.11670
C257        C  0.62896928  0.81328134  0.69306001     0.03000
C258        C  0.66015494  0.84109385  0.69008673    -0.11090
H259        H  0.64399923  0.87140796  0.59272375     0.08590
H260        H  0.57395672  0.79203948  0.66626090     0.06120
H261        H  0.67970368  0.84506789  0.71604607     0.05970
C262        C  0.73669652  0.28378788  0.63381495     0.03010
C263        C  0.70810278  0.28576856  0.66468936    -0.13140
C264        C  0.70301349  0.25298229  0.69099776     0.00510
C265        C  0.72752249  0.21864671  0.68722368    -0.11670
C266        C  0.75596924  0.21593723  0.65618266     0.03000
C267        C  0.76040376  0.24867064  0.62922816    -0.11090
H268        H  0.68929527  0.31256879  0.66770081     0.08590
H269        H  0.72396499  0.19356093  0.70814313     0.06120
H270        H  0.78202878  0.24684829  0.60491239     0.05970
C271        C  0.02695969  0.78345703  0.64542576     0.03010
C272        C  0.02222233  0.74845420  0.62189069    -0.13140
C273        C  0.04761882  0.71471550  0.62824878     0.00510
C274        C  0.07724272  0.71612271  0.65867716    -0.11670
C275        C  0.08187978  0.75095949  0.68230389     0.03000
C276        C  0.05698179  0.78463925  0.67524592    -0.11090
H277        H  0.99869893  0.74733483  0.59908321     0.08590
H278        H  0.09671227  0.69009668  0.66390083     0.06120
H279        H  0.06007834  0.81141949  0.69387380     0.05970
O280        O  0.91279725  0.94275299  0.61170969    -0.73070
O281        O  0.85317390  0.04928829  0.61673348    -0.74050
O282        O  0.93561428  0.02472186  0.61310487    -0.62670
O283        O  0.83028722  0.96638012  0.61511243    -0.71080
O284        O  0.83273900  0.96520369  0.68192234    -0.70630
O285        O  0.93762756  0.02436971  0.67991807    -0.61880
O286        O  0.85576151  0.04766671  0.68383737    -0.74390
O287        O  0.91566778  0.94109419  0.67871985    -0.73170
Cu288      Cu  0.88277757  0.99588911  0.61186792     1.04560
Cu289      Cu  0.88549705  0.99442250  0.68344987     1.04330
C290        C  0.92439530  0.92554899  0.64447101     0.93130
C291        C  0.84521369  0.06522456  0.65095958     0.92270
C292        C  0.95343547  0.03381888  0.64609540     0.84420
C293        C  0.81475498  0.95642142  0.64888581     0.90690
C294        C  0.55104777  0.13212522  0.77827698     0.03010
C295        C  0.57812224  0.16431121  0.78091212    -0.13140
C296        C  0.57965119  0.19332046  0.75014507     0.00510
C297        C  0.55240893  0.19154998  0.71787882    -0.11670
C298        C  0.52673828  0.15820953  0.71299315     0.03000
C299        C  0.52685159  0.12793977  0.74338500    -0.11090
H300        H  0.59782811  0.16686631  0.80702149     0.08590
H301        H  0.55204901  0.21597571  0.69589236     0.06120
H302        H  0.50762064  0.10176099  0.74059866     0.05970
C303        C  0.24776176  0.15009426  0.28669490     0.03010
C304        C  0.24662393  0.12177087  0.25485459    -0.13140
C305        C  0.22580843  0.13078298  0.21852279     0.00510
C306        C  0.20497322  0.16779315  0.21501751    -0.11670
C307        C  0.20295511  0.19446018  0.24765504     0.03000
C308        C  0.22587137  0.18649910  0.28248592    -0.11090
H309        H  0.26174490  0.09276673  0.25837515     0.08590
H310        H  0.18805352  0.17464649  0.18766764     0.06120
H311        H  0.22541122  0.20816003  0.30701707     0.05970
C312        C  0.16673939  0.14854007  0.63339484     0.03010
C313        C  0.13310099  0.12381013  0.62696874    -0.13140
C314        C  0.09919132  0.12788718  0.65178456     0.00510
C315        C  0.09852741  0.15749945  0.68199561    -0.11670
C316        C  0.13216633  0.18180974  0.68875285     0.03000
C317        C  0.16637599  0.17677886  0.66486222    -0.11090
H318        H  0.13338898  0.10146047  0.60306011     0.08590
H319        H  0.07215743  0.16089167  0.70087305     0.06120
H320        H  0.19246595  0.19568199  0.66999005     0.05970
O321        O  0.35379564  0.10653582  0.45220520    -0.73070
O322        O  0.41664144  0.11889456  0.55572548    -0.74050
O323        O  0.33350713  0.11294487  0.53421515    -0.62670
O324        O  0.43697639  0.11284611  0.47235521    -0.71080
O325        O  0.43198997  0.17956423  0.46488313    -0.70630
O326        O  0.33212304  0.17960615  0.53259431    -0.61880
O327        O  0.41565869  0.18583965  0.54896312    -0.74390
O328        O  0.34761156  0.17350784  0.44871483    -0.73170
Cu329      Cu  0.38547881  0.11049823  0.50389826     1.04560
Cu330      Cu  0.38174305  0.18198123  0.49853030     1.04330
C331        C  0.33988265  0.13829312  0.43481278     0.93130
C332        C  0.42637649  0.15403947  0.56845974     0.92270
C333        C  0.31609081  0.14624753  0.54324630     0.84420
C334        C  0.45058232  0.14618816  0.45844984     0.90690
C335        C  0.10161849  0.86384781  0.34949513     0.03010
C336        C  0.13257951  0.86446396  0.37881708    -0.13140
C337        C  0.16802528  0.84185321  0.37295275     0.00510
C338        C  0.17080688  0.81505946  0.34042801    -0.11670
C339        C  0.13934833  0.81255660  0.31250262     0.03000
C340        C  0.10637246  0.83878135  0.31558742    -0.11090
H341        H  0.12970797  0.88292665  0.40562290     0.08590
H342        H  0.19731002  0.79601185  0.33710055     0.06120
H343        H  0.08356191  0.83842725  0.29202899     0.05970
C344        C  0.74642508  0.78950620  0.35343700     0.03010
C345        C  0.74591912  0.75705177  0.38127404    -0.13140
C346        C  0.72328062  0.72218948  0.37306807     0.00510
C347        C  0.69855188  0.72095154  0.33869182    -0.11670
C348        C  0.69710341  0.75378527  0.31189230     0.03000
C349        C  0.72234508  0.78696392  0.31835563    -0.11090
H350        H  0.76351664  0.75845468  0.40889154     0.08590
H351        H  0.67998989  0.69462922  0.33318307     0.06120
H352        H  0.72246754  0.81135427  0.29632768     0.05970
C353        C  0.60100537  0.15606343  0.37067310     0.03010
C354        C  0.60625384  0.19184379  0.34818338    -0.13140
C355        C  0.64078667  0.19768132  0.32505744     0.00510
C356        C  0.67269316  0.17018830  0.32817589    -0.11670
C357        C  0.66857126  0.13406986  0.35013694     0.03000
C358        C  0.63216625  0.12662505  0.37065889    -0.11090
H359        H  0.58257252  0.21457475  0.34706378     0.08590
H360        H  0.69987550  0.17551596  0.31101843     0.06120
H361        H  0.62808903  0.09805378  0.38626492     0.05970
C362        C  0.04649469  0.27885029  0.36585365     0.03010
C363        C  0.07479159  0.28249383  0.33492006    -0.13140
C364        C  0.07790776  0.25266997  0.30531463     0.00510
C365        C  0.05124034  0.22012071  0.30533344    -0.11670
C366        C  0.02407872  0.21439292  0.33726416     0.03000
C367        C  0.02237970  0.24396286  0.36807022    -0.11090
H368        H  0.09435680  0.30863438  0.33389324     0.08590
H369        H  0.05240085  0.19863712  0.28067662     0.06120
H370        H  0.00194366  0.24042719  0.39317509     0.05970
O371        O  0.85489094  0.94469024  0.32243971    -0.73070
O372        O  0.91474305  0.04963543  0.30743444    -0.74050
O373        O  0.93758335  0.96675919  0.31654515    -0.62670
O374        O  0.83184448  0.02622641  0.31358163    -0.71080
O375        O  0.83620906  0.03513003  0.37928111    -0.70630
O376        O  0.94020183  0.97335153  0.38328533    -0.61880
O377        O  0.91838659  0.05625340  0.37411656    -0.74390
O378        O  0.85721719  0.95240257  0.38906539    -0.73170
Cu379      Cu  0.88481427  0.99663633  0.31263268     1.04560
Cu380      Cu  0.88820532  0.00460015  0.38369403     1.04330
C381        C  0.84571015  0.93267561  0.35796918     0.93130
C382        C  0.92615459  0.06931320  0.33864499     0.92270
C383        C  0.95523871  0.96017064  0.35039580     0.84420
C384        C  0.81646714  0.03929704  0.34631129     0.90690
C385        C  0.67262686  0.28399586  0.25703624     0.03010
C386        C  0.64353939  0.28128691  0.22630753    -0.13140
C387        C  0.61327091  0.25217766  0.22856194     0.00510
C388        C  0.61195322  0.22574505  0.26158717    -0.11670
C389        C  0.64087169  0.22819674  0.29253479     0.03000
C390        C  0.67130587  0.25725201  0.29012529    -0.11090
H391        H  0.64410898  0.30215122  0.20091457     0.08590
H392        H  0.58873572  0.20286762  0.26286423     0.06120
H393        H  0.69402660  0.25880334  0.31370682     0.05970
C394        C  0.66725867  0.75460807  0.27872353     0.03010
C395        C  0.63732551  0.78483057  0.27797051    -0.13140
C396        C  0.60734750  0.78478210  0.24794935     0.00510
C397        C  0.60743807  0.75441943  0.21846694    -0.11670
C398        C  0.63715556  0.72414206  0.21904300     0.03000
C399        C  0.66705017  0.72425219  0.24919863    -0.11090
H400        H  0.63690200  0.80793584  0.30118085     0.08590
H401        H  0.58412494  0.75405841  0.19538057     0.06120
H402        H  0.68986786  0.70061229  0.24987826     0.05970
C403        C  0.10797640  0.72057126  0.25386060     0.03010
C404        C  0.13769705  0.71909657  0.22405871    -0.13140
C405        C  0.16812615  0.74822531  0.22296719     0.00510
C406        C  0.16883871  0.77899677  0.25205336    -0.11670
C407        C  0.13916436  0.78053589  0.28191426     0.03000
C408        C  0.10887202  0.75115025  0.28288673    -0.11090
H409        H  0.13683221  0.69550557  0.20136118     0.08590
H410        H  0.19214250  0.80180144  0.25127699     0.06120
H411        H  0.08597647  0.75217703  0.30606861     0.05970
C412        C  0.13863126  0.72509440  0.77848974     0.03010
C413        C  0.16786773  0.75538640  0.77895470    -0.13140
C414        C  0.16922942  0.78413536  0.74770980     0.00510
C415        C  0.14118699  0.78240035  0.71591702    -0.11670
C416        C  0.11191726  0.75203658  0.71521251     0.03000
C417        C  0.11071875  0.72342185  0.74659973    -0.11090
H418        H  0.18972916  0.75634775  0.80341188     0.08590
H419        H  0.14209440  0.80469266  0.69178227     0.06120
H420        H  0.08809398  0.69990492  0.74624030     0.05970
C421        C  0.13178807  0.21258369  0.72070624     0.03010
C422        C  0.16265107  0.21304266  0.74981043    -0.13140
C423        C  0.16319510  0.24315712  0.77932031     0.00510
C424        C  0.13267314  0.27258596  0.78014246    -0.11670
C425        C  0.10168597  0.27232714  0.75130013     0.03000
C426        C  0.10133044  0.24228522  0.72148736    -0.11090
H427        H  0.18621875  0.19014444  0.74943159     0.08590
H428        H  0.13329034  0.29598785  0.80306149     0.06120
H429        H  0.07775764  0.24234065  0.69867719     0.05970
C430        C  0.61076714  0.22471019  0.75061161     0.03010
C431        C  0.61023477  0.25517545  0.77979931    -0.13140
C432        C  0.63997103  0.28510996  0.77985563     0.00510
C433        C  0.67040748  0.28442674  0.75081323    -0.11670
C434        C  0.67115751  0.25387594  0.72161073     0.03000
C435        C  0.64126834  0.22408241  0.72155311    -0.11090
H436        H  0.58673561  0.25561333  0.80239233     0.08590
H437        H  0.69341671  0.30755554  0.75096996     0.06120
H438        H  0.64170398  0.20045347  0.69887342     0.05970
C439        C  0.66049056  0.72227142  0.75394073     0.03010
C440        C  0.63174600  0.72251324  0.78481875    -0.13140
C441        C  0.60195117  0.75283236  0.78581707     0.00510
C442        C  0.60117368  0.78305476  0.75588915    -0.11670
C443        C  0.62991705  0.78285738  0.72528015     0.03000
C444        C  0.65941989  0.75237856  0.72421517    -0.11090
H445        H  0.63233200  0.69897077  0.80773941     0.08590
H446        H  0.57791644  0.80628778  0.75601383     0.06120
H447        H  0.68139996  0.75196979  0.70011412     0.05970
C448        C  0.13989907  0.28549694  0.21594226     0.03010
C449        C  0.10942151  0.28432460  0.24503827    -0.13140
C450        C  0.11008799  0.25452503  0.27514141     0.00510
C451        C  0.14151062  0.22602875  0.27641652    -0.11670
C452        C  0.17228216  0.22700785  0.24759255     0.03000
C453        C  0.17131751  0.25676271  0.21724183    -0.11090
H454        H  0.08519615  0.30651539  0.24423732     0.08590
H455        H  0.14157493  0.20257688  0.29947141     0.06120
H456        H  0.19462314  0.25725661  0.19446758     0.05970
C457        C  0.95590523  0.18017550  0.34356952    -0.01970
C458        C  0.99813602  0.17734803  0.33761712     0.07710
C459        C  0.01526627  0.13874873  0.32911101    -0.02080
C460        C  0.99041659  0.10481355  0.32397023    -0.02090
C461        C  0.94954239  0.10701925  0.33433335     0.07840
C462        C  0.93228749  0.14475108  0.34422467    -0.02280
Br463      Br  0.87564834  0.14785462  0.35667461    -0.00830
Br464      Br  0.92914537  0.23211228  0.34796988    -0.00900
Br465      Br  0.01208269  0.05573044  0.30095348    -0.00860
Br466      Br  0.07297449  0.13027496  0.32826240    -0.00850
C467        C  0.71784786  0.09094266  0.31194027    -0.01970
C468        C  0.70234161  0.10411379  0.34933827     0.07710
C469        C  0.72182730  0.09180398  0.38526966    -0.02080
C470        C  0.75593813  0.06645794  0.38394747    -0.02090
C471        C  0.77561337  0.05904994  0.34660054     0.07840
C472        C  0.75543655  0.07086942  0.31023878    -0.02280
Br473      Br  0.77804574  0.06162369  0.25723998    -0.00830
Br474      Br  0.68713018  0.10011968  0.26271872    -0.00900
Br475      Br  0.77239624  0.04023775  0.43403527    -0.00860
Br476      Br  0.70533045  0.11293667  0.43671478    -0.00850
C477        C  0.83622394  0.85894127  0.37386740    -0.01970
C478        C  0.81980608  0.89673841  0.36257495     0.07710
C479        C  0.77840289  0.89998210  0.35382698    -0.02080
C480        C  0.75386044  0.86545675  0.35527819    -0.02090
C481        C  0.77138285  0.82645677  0.36037622     0.07840
C482        C  0.81303718  0.82352040  0.36990676    -0.02280
Br483      Br  0.84023603  0.77172124  0.37372674    -0.00830
Br484      Br  0.88995779  0.85589250  0.39596573    -0.00900
Br485      Br  0.69603121  0.87252227  0.35237947    -0.00860
Br486      Br  0.75503401  0.95201168  0.34031146    -0.00850
C487        C  0.06494150  0.93005966  0.36411483    -0.01970
C488        C  0.06395576  0.88847399  0.35347839     0.07710
C489        C  0.02636527  0.87091259  0.34355985    -0.02080
C490        C  0.99229506  0.89564392  0.33796142    -0.02090
C491        C  0.99269341  0.93594009  0.35160773     0.07840
C492        C  0.02870351  0.95229150  0.36706600    -0.02280
Br493      Br  0.02890462  0.00522631  0.39162577    -0.00830
Br494      Br  0.11511771  0.95868387  0.37050567    -0.00900
Br495      Br  0.94578995  0.87404241  0.31045070    -0.00860
Br496      Br  0.01963956  0.81275549  0.34106438    -0.00850
C497        C  0.52453972  0.13242973  0.45347586    -0.01970
C498        C  0.48850489  0.14622769  0.43527603     0.07710
C499        C  0.48925232  0.16077753  0.39519581    -0.02080
C500        C  0.52496293  0.15817740  0.37268124    -0.02090
C501        C  0.56211401  0.14967147  0.39241071     0.07840
C502        C  0.56144154  0.13818247  0.43368332    -0.02280
Br503      Br  0.60983495  0.13585491  0.46571432    -0.00830
Br504      Br  0.52398267  0.10663800  0.50598692    -0.00900
Br505      Br  0.52162798  0.16353034  0.31451234    -0.00860
Br506      Br  0.44212502  0.18560380  0.37108492    -0.00850
C507        C  0.22853283  0.11216115  0.60997764    -0.01970
C508        C  0.20266904  0.14593477  0.60740288     0.07710
C509        C  0.21297791  0.17928177  0.58311956    -0.02080
C510        C  0.25001877  0.17993398  0.56275262    -0.02090
C511        C  0.27690707  0.14612851  0.56545394     0.07840
C512        C  0.26533061  0.11190846  0.58903214    -0.02280
Br513      Br  0.29963962  0.06460715  0.59568731    -0.00830
Br514      Br  0.21420026  0.06683414  0.64414115    -0.00900
Br515      Br  0.26189585  0.22805887  0.53134463    -0.00860
Br516      Br  0.17536102  0.22410939  0.57730430    -0.00850
C517        C  0.25079373  0.14567078  0.36297403    -0.01970
C518        C  0.27027208  0.14161230  0.32516650     0.07710
C519        C  0.31171876  0.13119758  0.32482684    -0.02080
C520        C  0.33267136  0.12426755  0.36125376    -0.02090
C521        C  0.31479721  0.13469153  0.39808873     0.07840
C522        C  0.27351628  0.14442368  0.39908390    -0.02280
Br523      Br  0.24783767  0.15423910  0.45020091    -0.00830
Br524      Br  0.19295479  0.15161407  0.36602430    -0.00900
Br525      Br  0.38541562  0.09943645  0.36073291    -0.00860
Br526      Br  0.34244780  0.13223868  0.27595347    -0.00850
C527        C  0.45867027  0.14735562  0.67871732    -0.01970
C528        C  0.50040352  0.15602911  0.67599913     0.07710
C529        C  0.51641545  0.16598865  0.63749225    -0.02080
C530        C  0.49075997  0.17063598  0.60381495    -0.02090
C531        C  0.45069980  0.15752869  0.60585026     0.07840
C532        C  0.43468856  0.14578397  0.64336634    -0.02280
Br533      Br  0.37880444  0.13053669  0.64655787    -0.00830
Br534      Br  0.43258485  0.14073144  0.73027986    -0.00900
Br535      Br  0.51010301  0.19730387  0.55575419    -0.00860
Br536      Br  0.57383924  0.16954942  0.62866275    -0.00850
C537        C  0.05763502  0.07056802  0.67652907    -0.01970
C538        C  0.06431166  0.10085371  0.64735689     0.07710
C539        C  0.03617108  0.10746091  0.61610197    -0.02080
C540        C  0.00014646  0.08527867  0.61510069    -0.02090
C541        C  0.99246213  0.05562034  0.64526416     0.07840
C542        C  0.02218996  0.04757670  0.67526704    -0.02280
Br543      Br  0.01611423  0.00402507  0.71402706    -0.00830
Br544      Br  0.09746066  0.06074377  0.71839828    -0.00900
Br545      Br  0.96096628  0.09833662  0.57346481    -0.00860
Br546      Br  0.04640918  0.14849645  0.57569901    -0.00850
C547        C  0.98634229  0.88854029  0.62153092    -0.01970
C548        C  0.94944626  0.88818733  0.64256436     0.07710
C549        C  0.93741726  0.85237913  0.66241949    -0.02080
C550        C  0.96216822  0.81764504  0.66205556    -0.02090
C551        C  0.99902303  0.81826751  0.64144096     0.07840
C552        C  0.01095416  0.85358014  0.62087324    -0.02280
Br553      Br  0.06156916  0.85404430  0.59261109    -0.00830
Br554      Br  0.00476807  0.93768073  0.59601481    -0.00900
Br555      Br  0.94647040  0.76945968  0.69123466    -0.00860
Br556      Br  0.88671556  0.84995877  0.68940872    -0.00850
C557        C  0.78075973  0.10414434  0.64918322    -0.01970
C558        C  0.82295682  0.10400750  0.65241945     0.07710
C559        C  0.84359673  0.14086585  0.65685980    -0.02080
C560        C  0.82195808  0.17779707  0.65757871    -0.02090
C561        C  0.77972978  0.17796751  0.65202980     0.07840
C562        C  0.75939199  0.14091538  0.64680812    -0.02280
Br563      Br  0.70223285  0.14020885  0.63531125    -0.00830
Br564      Br  0.75177959  0.05407227  0.65247035    -0.00900
Br565      Br  0.84998233  0.22759649  0.66861815    -0.00860
Br566      Br  0.90128241  0.14040374  0.66380734    -0.00850
C567        C  0.70729968  0.92227857  0.62675962    -0.01970
C568        C  0.70560555  0.88560368  0.64932430     0.07710
C569        C  0.74072745  0.87336707  0.67079281    -0.02080
C570        C  0.77177999  0.90096657  0.67691498    -0.02090
C571        C  0.77640394  0.93351188  0.64966901     0.07840
C572        C  0.74446470  0.94220996  0.62230478    -0.02280
Br573      Br  0.74996645  0.98116813  0.57899059    -0.00830
Br574      Br  0.65958370  0.94955292  0.60641686    -0.00900
Br575      Br  0.80365637  0.89492465  0.72545127    -0.00860
Br576      Br  0.75078980  0.81777709  0.68720381    -0.00850
C577        C  0.25989205  0.08653560  0.16689532    -0.01970
C578        C  0.22422387  0.10140010  0.18435605     0.07710
C579        C  0.18684549  0.08945652  0.16773197    -0.02080
C580        C  0.18543165  0.06772843  0.13101631    -0.02090
C581        C  0.22165755  0.05303621  0.11332246     0.07840
C582        C  0.25833487  0.05913696  0.13466630    -0.02280
Br583      Br  0.30691986  0.02833795  0.12332925    -0.00830
Br584      Br  0.31154963  0.10743263  0.18235798    -0.00900
Br585      Br  0.13320444  0.05957536  0.10629567    -0.00860
Br586      Br  0.13729960  0.10210695  0.19569735    -0.00850
C587        C  0.22284432  0.93642428  0.81804074    -0.01970
C588        C  0.23827489  0.89650404  0.81863874     0.07710
C589        C  0.25302661  0.87963636  0.85506690    -0.02080
C590        C  0.25152511  0.90221681  0.89097005    -0.02090
C591        C  0.23535578  0.94185820  0.89059865     0.07840
C592        C  0.22124214  0.95904174  0.85404008    -0.02280
Br593      Br  0.19965589  0.01347380  0.85332058    -0.00830
Br594      Br  0.20222732  0.95936878  0.76824570    -0.00900
Br595      Br  0.26894173  0.87757350  0.94122890    -0.00860
Br596      Br  0.27462940  0.82512578  0.85580647    -0.00850
C597        C  0.20236957  0.18070413  0.93619551    -0.01970
C598        C  0.22680285  0.18573212  0.90204254     0.07710
C599        C  0.25359340  0.15473259  0.89038305    -0.02080
C600        C  0.25452714  0.11779761  0.91154293    -0.02090
C601        C  0.22882642  0.11187304  0.94491186     0.07840
C602        C  0.20356797  0.14390533  0.95789844    -0.02280
Br603      Br  0.17141777  0.13807963  0.00596108    -0.00830
Br604      Br  0.16659621  0.22395060  0.95223309    -0.00900
Br605      Br  0.28901416  0.07461134  0.89230797    -0.00860
Br606      Br  0.28772689  0.16237037  0.84386448    -0.00850
C607        C  0.19128195  0.82910945  0.08514315    -0.01970
C608        C  0.22740015  0.81424352  0.10230604     0.07710
C609        C  0.26380309  0.83412434  0.09426116    -0.02080
C610        C  0.26419362  0.86879015  0.06929330    -0.02090
C611        C  0.22728932  0.88692677  0.05572611     0.07840
C612        C  0.19066347  0.86604385  0.06367630    -0.02280
Br613      Br  0.13824626  0.88643046  0.04688804    -0.00830
Br614      Br  0.14229982  0.79791062  0.09023561    -0.00900
Br615      Br  0.31663808  0.88895456  0.05392399    -0.00860
Br616      Br  0.31328301  0.81562880  0.11982785    -0.00850
C617        C  0.57322014  0.07412398  0.82273262    -0.01970
C618        C  0.54577305  0.10571008  0.81416525     0.07710
C619        C  0.51541726  0.11519197  0.84208095    -0.02080
C620        C  0.51256169  0.09356761  0.87870509    -0.02090
C621        C  0.54149199  0.06310974  0.88872674     0.07840
C622        C  0.57111718  0.05273821  0.85972913    -0.02280
Br623      Br  0.60744976  0.00758950  0.86877582    -0.00830
Br624      Br  0.61392038  0.06065042  0.78354111    -0.00900
Br625      Br  0.46876443  0.10743274  0.91451611    -0.00860
Br626      Br  0.47903429  0.15995053  0.83104739    -0.00850
C627        C  0.52037343  0.89729329  0.10367345    -0.01970
C628        C  0.52273801  0.93975470  0.10629468     0.07710
C629        C  0.52008048  0.95810434  0.14450266    -0.02080
C630        C  0.52453609  0.93452398  0.17986257    -0.02090
C631        C  0.52644308  0.89178907  0.17717313     0.07840
C632        C  0.52187636  0.87330529  0.13895201    -0.02280
Br633      Br  0.51611314  0.81522711  0.13480375    -0.00830
Br634      Br  0.51012377  0.87243240  0.05217447    -0.00900
Br635      Br  0.53084692  0.96151261  0.23116262    -0.00860
Br636      Br  0.50438547  0.01411560  0.14852716    -0.00850
C637        C  0.49993019  0.85576256  0.88215854    -0.01970
C638        C  0.52558469  0.82337615  0.89292930     0.07710
C639        C  0.55176500  0.82687698  0.92626355    -0.02080
C640        C  0.55357388  0.86329949  0.94801418    -0.02090
C641        C  0.52720091  0.89589173  0.93795045     0.07840
C642        C  0.50044191  0.89188570  0.90472222    -0.02280
Br643      Br  0.46785657  0.93724620  0.88662369    -0.00830
Br644      Br  0.46590068  0.85117998  0.83492176    -0.00900
Br645      Br  0.59391761  0.86792835  0.99019469    -0.00860
Br646      Br  0.58600204  0.78154006  0.94137638    -0.00850
C647        C  0.56161064  0.10860650  0.10269634    -0.01970
C648        C  0.54885247  0.11116665  0.06221101     0.07710
C649        C  0.54162111  0.14963114  0.04495266    -0.02080
C650        C  0.54518686  0.18492016  0.06878563    -0.02090
C651        C  0.55114332  0.18149962  0.11119811     0.07840
C652        C  0.55789972  0.14236200  0.12802379    -0.02280
Br653      Br  0.55822927  0.13268423  0.18579278    -0.00830
Br654      Br  0.58943877  0.06091277  0.12244322    -0.00900
Br655      Br  0.54559445  0.23710639  0.04213946    -0.00860
Br656      Br  0.53186276  0.15409559  0.98771790    -0.00850
C657        C  0.25791582  0.35724234  0.82864713    -0.01970
C658        C  0.27162130  0.32067147  0.84703427     0.07710
C659        C  0.31065195  0.32018989  0.86488405    -0.02080
C660        C  0.33238346  0.35656711  0.86850829    -0.02090
C661        C  0.32050859  0.39092836  0.84570544     0.07840
C662        C  0.28470436  0.38928336  0.82269941    -0.02280
Br663      Br  0.27207814  0.42912493  0.78143531    -0.00830
Br664      Br  0.20164528  0.36730579  0.81619460    -0.00900
Br665      Br  0.37878178  0.35821863  0.90388728    -0.00860
Br666      Br  0.33761682  0.27024698  0.88008820    -0.00850
C667        C  0.44978540  0.63027062  0.81194974    -0.01970
C668        C  0.44105443  0.60979874  0.84899422     0.07710
C669        C  0.45334817  0.62845365  0.88591235    -0.02080
C670        C  0.47740330  0.66351382  0.88535179    -0.02090
C671        C  0.48565680  0.68331739  0.84858659     0.07840
C672        C  0.46977808  0.66774550  0.81230069    -0.02280
Br673      Br  0.47413226  0.69888492  0.76265298    -0.00830
Br674      Br  0.43654581  0.60847848  0.75916929    -0.00900
Br675      Br  0.50114722  0.68287047  0.93519338    -0.00860
Br676      Br  0.43718479  0.60847354  0.93848001    -0.00850
C677        C  0.27745273  0.60404536  0.85963969    -0.01970
C678        C  0.27517679  0.56174818  0.85554579     0.07710
C679        C  0.23737927  0.54315282  0.85192854    -0.02080
C680        C  0.20239617  0.56691425  0.84662427    -0.02090
C681        C  0.20460878  0.60951764  0.84969344     0.07840
C682        C  0.24213862  0.62775586  0.85834522    -0.02280
Br683      Br  0.24545841  0.68503256  0.86991012    -0.00830
Br684      Br  0.32911671  0.62947917  0.86700728    -0.00900
Br685      Br  0.15255227  0.54077462  0.83213502    -0.00860
Br686      Br  0.23311509  0.48542733  0.85769180    -0.00850
C687        C  0.52571463  0.37376224  0.84382631    -0.01970
C688        C  0.56315130  0.39371598  0.84783145     0.07710
C689        C  0.56374697  0.43660278  0.84939968    -0.02080
C690        C  0.52726025  0.45876927  0.84845878    -0.02090
C691        C  0.49056640  0.43856847  0.84239116     0.07840
C692        C  0.49021183  0.39632870  0.83800108    -0.02280
Br693      Br  0.44155913  0.36959353  0.82119815    -0.00830
Br694      Br  0.52196158  0.31545343  0.84861590    -0.00900
Br695      Br  0.52732583  0.51700604  0.85356666    -0.00860
Br696      Br  0.61399693  0.46558125  0.85014063    -0.00850
C697        C  0.02984925  0.63862572  0.95193068    -0.01970
C698        C  0.99287588  0.65130563  0.93495094     0.07710
C699        C  0.99159281  0.66514052  0.89471784    -0.02080
C700        C  0.02613198  0.66250072  0.87060331    -0.02090
C701        C  0.06433914  0.65507366  0.88876182     0.07840
C702        C  0.06584714  0.64454558  0.93043264    -0.02280
Br703      Br  0.11603424  0.64250627  0.96029816    -0.00830
Br704      Br  0.03142785  0.61317905  0.00449738    -0.00900
Br705      Br  0.01914113  0.66503196  0.81248864    -0.00860
Br706      Br  0.94288459  0.68863856  0.87248595    -0.00850
C707        C  0.01635249  0.66359513  0.13947869    -0.01970
C708        C  0.00035667  0.65070105  0.17708818     0.07710
C709        C  0.95995453  0.63697518  0.17798112    -0.02080
C710        C  0.93799895  0.63299965  0.14162771    -0.02090
C711        C  0.95242282  0.65085842  0.10581458     0.07840
C712        C  0.99093465  0.66828415  0.10569262    -0.02280
Br713      Br  0.00920756  0.69925890  0.05975832    -0.00830
Br714      Br  0.07358080  0.67077960  0.13163680    -0.00900
Br715      Br  0.88817516  0.60332321  0.14138705    -0.00860
Br716      Br  0.93202328  0.62781715  0.22825244    -0.00850
C717        C  0.75571869  0.66043218  0.86260841    -0.01970
C718        C  0.77088051  0.64829740  0.82444771     0.07710
C719        C  0.81160594  0.63504964  0.82227328    -0.02080
C720        C  0.83483823  0.63141230  0.85797084    -0.02090
C721        C  0.82111955  0.64934102  0.89400409     0.07840
C722        C  0.78213225  0.66609272  0.89524554    -0.02280
Br723      Br  0.76460599  0.69796616  0.94081236    -0.00830
Br724      Br  0.69853825  0.66532031  0.87275027    -0.00900
Br725      Br  0.88548453  0.60246052  0.85700146    -0.00860
Br726      Br  0.83820288  0.62616892  0.77125022    -0.00850
C727        C  0.74695424  0.66085663  0.12694620    -0.01970
C728        C  0.70898912  0.65346709  0.10845410     0.07710
C729        C  0.70816327  0.64294100  0.06686924    -0.02080
C730        C  0.74458806  0.63700628  0.04592164    -0.02090
C731        C  0.78110489  0.65016957  0.06310689     0.07840
C732        C  0.78157917  0.66415095  0.10314552    -0.02280
Br733      Br  0.82915228  0.68891838  0.12553055    -0.00830
Br734      Br  0.75371832  0.66234634  0.18511189    -0.00900
Br735      Br  0.74419430  0.61071485  0.99398563    -0.00860
Br736      Br  0.65846607  0.64116243  0.03630218    -0.00850
C737        C  0.70835059  0.32726165  0.93040618    -0.01970
C738        C  0.70263898  0.35323973  0.89698928     0.07710
C739        C  0.73356501  0.37955605  0.88514245    -0.02080
C740        C  0.77058424  0.37929906  0.90598182    -0.02090
C741        C  0.77662172  0.35319704  0.93952728     0.07840
C742        C  0.74512779  0.32737527  0.95188968    -0.02280
Br743      Br  0.75159852  0.29251548  0.99854709    -0.00830
Br744      Br  0.66592092  0.29077650  0.94581142    -0.00900
Br745      Br  0.81399373  0.41226512  0.88582624    -0.00860
Br746      Br  0.72560841  0.41468699  0.83887966    -0.00850
C747        C  0.84151742  0.33912040  0.14354621    -0.01970
C748        C  0.82400095  0.35541243  0.10804661     0.07710
C749        C  0.78459753  0.37156283  0.10900505    -0.02080
C750        C  0.76264383  0.37103833  0.14523362    -0.02090
C751        C  0.78011092  0.35466911  0.18068914     0.07840
C752        C  0.81964804  0.33892398  0.17987038    -0.02280
Br753      Br  0.84325381  0.31584309  0.22827034    -0.00830
Br754      Br  0.89565608  0.31752508  0.14254453    -0.00900
Br755      Br  0.70836330  0.39232853  0.14634336    -0.00860
Br756      Br  0.75982135  0.39243930  0.06016846    -0.00850
C757        C  0.93752542  0.32806791  0.86137691    -0.01970
C758        C  0.94795739  0.35475006  0.89301574     0.07710
C759        C  0.98175478  0.38024610  0.88862529    -0.02080
C760        C  0.00516352  0.37848477  0.85327895    -0.02090
C761        C  0.99537333  0.35093078  0.82246695     0.07840
C762        C  0.96132934  0.32604108  0.82637402    -0.02280
Br763      Br  0.94739618  0.28906620  0.78345268    -0.00830
Br764      Br  0.88987375  0.29507108  0.86502029    -0.00900
Br765      Br  0.05175591  0.41258979  0.84755694    -0.00860
Br766      Br  0.99824862  0.41551519  0.93205521    -0.00850
C767        C  0.03501187  0.38253744  0.11750668    -0.01970
C768        C  0.06700117  0.35744205  0.10509065     0.07710
C769        C  0.06291403  0.33347286  0.07021998    -0.02080
C770        C  0.02656052  0.33399388  0.04813048    -0.02090
C771        C  0.99388234  0.35814956  0.06124270     0.07840
C772        C  0.99846249  0.38289344  0.09574453    -0.02280
Br773      Br  0.95406028  0.41540026  0.11513051    -0.00830
Br774      Br  0.04104749  0.41530131  0.16534684    -0.00900
Br775      Br  0.02234085  0.30260626  0.99912860    -0.00860
Br776      Br  0.10712016  0.29936404  0.05329115    -0.00850
C777        C  0.21469103  0.42864755  0.17726596    -0.01970
C778        C  0.20607377  0.40023359  0.14689226     0.07710
C779        C  0.23344750  0.39380296  0.11535004    -0.02080
C780        C  0.27043108  0.41433891  0.11501618    -0.02090
C781        C  0.28045368  0.44143289  0.14682232     0.07840
C782        C  0.25151150  0.44949901  0.17715699    -0.02280
Br783      Br  0.26038876  0.49067217  0.21760694    -0.00830
Br784      Br  0.17558389  0.43881869  0.21912016    -0.00900
Br785      Br  0.30700630  0.40312847  0.07109514    -0.00860
Br786      Br  0.22084001  0.35498686  0.07358951    -0.00850
C787        C  0.29536401  0.61269719  0.11455293    -0.01970
C788        C  0.32553977  0.60662458  0.14457331     0.07710
C789        C  0.32998556  0.63583256  0.17569109    -0.02080
C790        C  0.30563798  0.67083720  0.17581978    -0.02090
C791        C  0.27520177  0.67616396  0.14646576     0.07840
C792        C  0.27027378  0.64731879  0.11568601    -0.02280
Br793      Br  0.22755828  0.65435278  0.07634300    -0.00830
Br794      Br  0.28481277  0.57199286  0.07406086    -0.00900
Br795      Br  0.31435175  0.71229127  0.21613866    -0.00860
Br796      Br  0.36836209  0.62872313  0.21948941    -0.00850
C797        C  0.49476498  0.60551426  0.14705158    -0.01970
C798        C  0.49708807  0.56308532  0.14428287     0.07710
C799        C  0.53493160  0.54460031  0.13873262    -0.02080
C800        C  0.57042779  0.56675728  0.14548480    -0.02090
C801        C  0.56841598  0.60939783  0.15017091     0.07840
C802        C  0.53013011  0.62876291  0.14803723    -0.02280
Br803      Br  0.52533332  0.68709385  0.14324431    -0.00830
Br804      Br  0.44296155  0.63201800  0.14488122    -0.00900
Br805      Br  0.62047892  0.53718952  0.15159316    -0.00860
Br806      Br  0.53836936  0.49124043  0.11576061    -0.00850
C807        C  0.43346371  0.35299155  0.14939488    -0.01970
C808        C  0.45166412  0.39063982  0.15709826     0.07710
C809        C  0.49209614  0.39159004  0.16943418    -0.02080
C810        C  0.51628792  0.35699471  0.16558447    -0.02090
C811        C  0.49838536  0.31854077  0.15969069     0.07840
C812        C  0.45621423  0.31674004  0.15306811    -0.02280
Br813      Br  0.42855211  0.26551181  0.15252966    -0.00830
Br814      Br  0.37646704  0.35097052  0.13879613    -0.00900
Br815      Br  0.57406285  0.36434976  0.16511922    -0.00860
Br816      Br  0.51317365  0.43795743  0.19757030    -0.00850
C817        C  0.71624276  0.35942928  0.54977479    -0.01970
C818        C  0.74111526  0.39194365  0.56172751     0.07710
C819        C  0.76719833  0.38702097  0.59543028    -0.02080
C820        C  0.76729062  0.35054159  0.61760444    -0.02090
C821        C  0.74113775  0.31905519  0.60668137     0.07840
C822        C  0.71598170  0.32328608  0.57252916    -0.02280
Br823      Br  0.68030905  0.27974808  0.55783718    -0.00830
Br824      Br  0.68327106  0.36349448  0.50158633    -0.00900
Br825      Br  0.80202641  0.34404277  0.66424638    -0.00860
Br826      Br  0.80077272  0.43096461  0.61370715    -0.00850
C827        C  0.70024817  0.64234868  0.45234384    -0.01970
C828        C  0.72907449  0.61208399  0.44285569     0.07710
C829        C  0.75668073  0.61908018  0.41118899    -0.02080
C830        C  0.75569869  0.65593340  0.38970658    -0.02090
C831        C  0.72670914  0.68571329  0.39894230     0.07840
C832        C  0.69897314  0.67892456  0.43017557    -0.02280
Br833      Br  0.65892562  0.71978634  0.44197977    -0.00830
Br834      Br  0.66303060  0.63472449  0.49628428    -0.00900
Br835      Br  0.79332225  0.66531882  0.34641239    -0.00860
Br836      Br  0.79398764  0.57721792  0.39444958    -0.00850
C837        C  0.76966559  0.39119417  0.35079584    -0.01970
C838        C  0.74159976  0.40042459  0.32007034     0.07710
C839        C  0.71388779  0.43243961  0.32511818    -0.02080
C840        C  0.71363133  0.45474615  0.36129209    -0.02090
C841        C  0.74058012  0.44440404  0.39303098     0.07840
C842        C  0.76898639  0.41278541  0.38738077    -0.02280
Br843      Br  0.80483155  0.39616786  0.43068966    -0.00830
Br844      Br  0.80769612  0.34737958  0.34326723    -0.00900
Br845      Br  0.67686488  0.50002330  0.36654555    -0.00860
Br846      Br  0.67553641  0.44479575  0.28262094    -0.00850
C847        C  0.71476383  0.54238101  0.64743617    -0.01970
C848        C  0.72917568  0.56126689  0.61211457     0.07710
C849        C  0.74201746  0.60179064  0.61340098    -0.02080
C850        C  0.74006052  0.62358062  0.64973696    -0.02090
C851        C  0.72461215  0.60515614  0.68495300     0.07840
C852        C  0.71243703  0.56432024  0.68386344    -0.02280
Br853      Br  0.69139919  0.53889008  0.73180576    -0.00830
Br854      Br  0.69893888  0.48627678  0.64595220    -0.00900
Br855      Br  0.75927994  0.67871464  0.65124900    -0.00860
Br856      Br  0.76059578  0.62814658  0.56477446    -0.00850
C857        C  0.27236413  0.87227084  0.40542712    -0.01970
C858        C  0.27697332  0.85014782  0.44175651     0.07710
C859        C  0.24434337  0.82777401  0.45721438    -0.02080
C860        C  0.20776688  0.82639344  0.43559705    -0.02090
C861        C  0.20370468  0.84761654  0.39883965     0.07840
C862        C  0.23565348  0.87123903  0.38423506    -0.02280
Br863      Br  0.22927706  0.90138911  0.33438895    -0.00830
Br864      Br  0.31718080  0.90137360  0.38264890    -0.00900
Br865      Br  0.16362599  0.79438466  0.45535839    -0.00860
Br866      Br  0.24932389  0.79945659  0.50821774    -0.00850
C867        C  0.52876699  0.82271773  0.54255664    -0.01970
C868        C  0.49606214  0.84573935  0.55743399     0.07710
C869        C  0.50007960  0.86730053  0.59390899    -0.02080
C870        C  0.53635279  0.86531257  0.61572392    -0.02090
C871        C  0.56846200  0.84113919  0.60165955     0.07840
C872        C  0.56496723  0.82032701  0.56482380    -0.02280
Br873      Br  0.60929818  0.78767037  0.54580240    -0.00830
Br874      Br  0.52437433  0.79500885  0.49146117    -0.00900
Br875      Br  0.54191346  0.89533014  0.66552041    -0.00860
Br876      Br  0.45501594  0.89715345  0.61591184    -0.00850
C877        C  0.48267168  0.86937886  0.38772052    -0.01970
C878        C  0.44646913  0.84734663  0.39050645     0.07710
C879        C  0.43233407  0.82552136  0.35670904    -0.02080
C880        C  0.45460488  0.82526561  0.32059950    -0.02090
C881        C  0.49082490  0.84701813  0.31808262     0.07840
C882        C  0.50464775  0.86929817  0.35153990    -0.02280
Br883      Br  0.55415099  0.89939736  0.34774338    -0.00830
Br884      Br  0.50381606  0.89780804  0.43410638    -0.00900
Br885      Br  0.43624348  0.79426373  0.27480744    -0.00860
Br886      Br  0.38188504  0.79700655  0.35927819    -0.00850
C887        C  0.29148911  0.87468271  0.61016917    -0.01970
C888        C  0.32729853  0.85142109  0.60792748     0.07710
C889        C  0.34102485  0.82965467  0.64223091    -0.02080
C890        C  0.31863047  0.83054878  0.67824044    -0.02090
C891        C  0.28260044  0.85320797  0.68008514     0.07840
C892        C  0.26929132  0.87557437  0.64620794    -0.02280
Br893      Br  0.21977528  0.90643674  0.64904954    -0.00830
Br894      Br  0.27094606  0.90314229  0.56313910    -0.00900
Br895      Br  0.33650786  0.79987806  0.72488073    -0.00860
Br896      Br  0.39083498  0.79924884  0.64033992    -0.00850
C897        C  0.05393227  0.64129272  0.54018302    -0.01970
C898        C  0.04078761  0.60511609  0.55844018     0.07710
C899        C  0.02865324  0.60524648  0.59920294    -0.02080
C900        C  0.02982442  0.64134849  0.62170122    -0.02090
C901        C  0.04333488  0.67753059  0.60359205     0.07840
C902        C  0.05505298  0.67748258  0.56264618    -0.02280
Br903      Br  0.07421829  0.72663912  0.53774880    -0.00830
Br904      Br  0.07041727  0.64119328  0.48437047    -0.00900
Br905      Br  0.01259018  0.64128229  0.67736687    -0.00860
Br906      Br  0.01247129  0.55537251  0.62489718    -0.00850
C907        C  0.01460698  0.38204060  0.40385956    -0.01970
C908        C  0.03905011  0.38615679  0.43872630     0.07710
C909        C  0.06370112  0.35327759  0.45137272    -0.02080
C910        C  0.06480854  0.31722191  0.42859640    -0.02090
C911        C  0.04083891  0.31354140  0.39356507     0.07840
C912        C  0.01530508  0.34575057  0.38164775    -0.02280
Br913      Br  0.98262343  0.34066354  0.33345265    -0.00830
Br914      Br  0.98268186  0.42718808  0.38402069    -0.00900
Br915      Br  0.10003969  0.27314620  0.44443897    -0.00860
Br916      Br  0.09543603  0.35705097  0.50029736    -0.00850
C917        C  0.06350703  0.54226043  0.35587948    -0.01970
C918        C  0.03824880  0.55505883  0.38774343     0.07710
C919        C  0.01354529  0.58977926  0.38236721    -0.02080
C920        C  0.01570683  0.61247766  0.34637821    -0.02090
C921        C  0.04244228  0.60078605  0.31561289     0.07840
C922        C  0.06575090  0.56529264  0.32000894    -0.02280
Br923      Br  0.10141194  0.54903166  0.27712432    -0.00830
Br924      Br  0.09402896  0.49241726  0.36047370    -0.00900
Br925      Br  0.98287716  0.66063376  0.33948151    -0.00860
Br926      Br  0.97839116  0.60829896  0.42492492    -0.00850
C927        C  0.07768045  0.43131834  0.63203242    -0.01970
C928        C  0.04098060  0.43903223  0.61055425     0.07710
C929        C  0.00423491  0.42612505  0.62864270    -0.02080
C930        C  0.00488310  0.40170086  0.66371474    -0.02090
C931        C  0.04143487  0.39327890  0.68387290     0.07840
C932        C  0.07741612  0.40992807  0.66902733    -0.02280
Br933      Br  0.12665819  0.40443666  0.70044514    -0.00830
Br934      Br  0.12954049  0.44958821  0.61289249    -0.00900
Br935      Br  0.95545419  0.37738745  0.68247494    -0.00860
Br936      Br  0.95161015  0.44170692  0.60787544    -0.00850
loop_ 
_geom_bond_atom_site_label_1 
_geom_bond_atom_site_label_2 
_geom_bond_distance 
_geom_bond_site_symmetry_2 
_ccdc_geom_bond_type 
O1           Cu9   2.011       .  S
O1           C11   1.278       .  A
O2           Cu9   2.014       .  S
O2           C12   1.278       .  A
O3           Cu9   2.008       .  S
O3           C13   1.277       .  A
O4           Cu9   2.000       .  S
O4           C14   1.274       .  A
O5          Cu10   2.014       .  S
O5           C14   1.277       .  A
O6          Cu10   2.011       .  S
O6           C13   1.278       .  A
O7          Cu10   2.015       .  S
O7           C12   1.278       .  A
O8          Cu10   2.016       .  S
O8           C11   1.278       .  A
Cu9         Cu10   2.365       .  S
C11         C908   1.485       .  S
C12         C898   1.477       .  S
C13         C918   1.483       .  S
C14         C928   1.509       .  S
O15         Cu23   2.018       .  S
O15          C25   1.279       .  A
O16         Cu23   2.017       .  S
O16          C26   1.279       .  A
O17         Cu23   2.000       .  S
O17          C27   1.276       .  A
O18         Cu23   2.000       .  S
O18          C28   1.277       .  A
O19         Cu24   2.001       .  S
O19          C28   1.277       .  A
O20         Cu24   2.000       .  S
O20          C27   1.277       .  A
O21         Cu24   1.999       .  S
O21          C26   1.276       .  A
O22         Cu24   1.999       .  S
O22          C25   1.276       .  A
Cu23        Cu24   2.375       .  S
C25         C888   1.478       .  S
C26         C878   1.478       .  S
C27         C868   1.471       .  S
C28         C858   1.473       .  S
O29         Cu37   2.007       .  S
O29          C39   1.277       .  A
O30         Cu37   2.002       .  S
O30          C40   1.277       .  A
O31         Cu37   2.005       .  S
O31          C41   1.277       .  A
O32         Cu37   2.005       .  S
O32          C42   1.277       .  A
O33         Cu38   2.010       .  S
O33          C42   1.278       .  A
O34         Cu38   2.012       .  S
O34          C41   1.278       .  A
O35         Cu38   2.018       .  S
O35          C40   1.279       .  A
O36         Cu38   2.009       .  S
O36          C39   1.278       .  A
Cu37        Cu38   2.371       .  S
C39         C818   1.483       .  S
C40         C828   1.485       .  S
C41         C848   1.473       .  S
C42         C841   1.482       .  S
O43         Cu51   1.989       .  S
O43          C53   1.273       .  A
O44         Cu51   1.991       .  S
O44          C54   1.273       .  A
O45         Cu51   2.041       .  S
O45          C55   1.283       .  A
O46         Cu51   2.023       .  S
O46          C56   1.280       .  A
O47         Cu52   1.993       .  S
O47          C56   1.274       .  A
O48         Cu52   2.005       .  S
O48          C55   1.274       .  A
O49         Cu52   2.036       .  S
O49          C54   1.282       .  A
O50         Cu52   2.026       .  S
O50          C53   1.281       .  A
Cu51        Cu52   2.366       .  S
C53         C788   1.490       .  S
C54         C808   1.477       .  S
C55         C798   1.482       .  S
C56         C781   1.491       .  S
C57         C778   1.476       .  S
C57          C58   1.399       .  A
C57          C62   1.405       .  A
C58          C59   1.397       .  A
C58          H63   1.085       .  S
C59         C448   1.470       .  S
C59          C60   1.400       .  A
C60          C61   1.401       .  A
C60          H64   1.084       .  S
C61         C768   1.476       .  S
C61          C62   1.405       .  A
C62          H65   1.084       .  S
C66         C761   1.479   1_455  S
C66          C67   1.405       .  A
C66          C71   1.401       .  A
C67          C68   1.408       .  A
C67          H72   1.083       .  S
C68         C931   1.488       .  S
C68          C69   1.404       .  A
C69          C70   1.399       .  A
C69          H73   1.084       .  S
C70         C425   1.472       .  S
C70          C71   1.400       .  A
C71          H74   1.084       .  S
C75         C838   1.475       .  S
C75          C76   1.399       .  A
C75          C80   1.404       .  A
C76          C77   1.398       .  A
C76          H81   1.085       .  S
C77         C385   1.472       .  S
C77          C78   1.401       .  A
C78          C79   1.402       .  A
C78          H82   1.084       .  S
C79         C751   1.478       .  S
C79          C80   1.406       .  A
C80          H83   1.084       .  S
O84         Cu92   2.006   1_554  S
O84          C94   1.277       .  A
O85         Cu92   2.001       .  S
O85          C95   1.277       .  A
O86         Cu92   2.008   1_554  S
O86          C96   1.277       .  A
O87         Cu92   2.012       .  S
O87          C97   1.278       .  A
O88         Cu93   2.010   1_556  S
O88          C97   1.278       .  A
O89         Cu93   2.010       .  S
O89          C96   1.278       .  A
O90         Cu93   2.017   1_556  S
O90          C95   1.279       .  A
O91         Cu93   2.010       .  S
O91          C94   1.278       .  A
Cu92        Cu93   2.373   1_556  S
C94         C771   1.480       .  S
C95         C741   1.483       .  S
C96         C748   1.475       .  S
C97         C758   1.484       .  S
C98         C801   1.498       .  S
C98          C99   1.405       .  A
C98         C103   1.412       .  A
C99         C100   1.397       .  A
C99         H104   1.084       .  S
C100        C398   1.470       .  S
C100        C101   1.394       .  A
C101        C102   1.404       .  A
C101        H105   1.084       .  S
C102        C728   1.501       .  S
C102        C103   1.412       .  A
C103        H106   1.079       .  S
C107        C851   1.482       .  S
C107        C108   1.401       .  A
C107        C112   1.408       .  A
C108        C109   1.395       .  A
C108        H113   1.084       .  S
C109        C439   1.468       .  S
C109        C110   1.394       .  A
C110        C111   1.406       .  A
C110        H114   1.084       .  S
C111        C718   1.499       .  S
C111        C112   1.413       .  A
C112        H115   1.081       .  S
C116        C708   1.500       .  S
C116        C117   1.412       .  A
C116        C121   1.406       .  A
C117        C118   1.406       .  A
C117        H122   1.082       .  S
C118        C921   1.477       .  S
C118        C119   1.400       .  A
C119        C120   1.396       .  A
C119        H123   1.084       .  S
C120        C403   1.469       .  S
C120        C121   1.397       .  A
C121        H124   1.083       .  S
O125       Cu133   2.008   1_554  S
O125        C135   1.277       .  A
O126       Cu133   2.007       .  S
O126        C136   1.277       .  A
O127       Cu133   2.007       .  S
O127        C137   1.278       .  A
O128       Cu133   2.010   1_554  S
O128        C138   1.278       .  A
O129       Cu134   2.012   1_554  S
O129        C138   1.278       .  A
O130       Cu134   2.010       .  S
O130        C137   1.277       .  A
O131       Cu134   2.017       .  S
O131        C136   1.278       .  A
O132       Cu134   2.018   1_554  S
O132        C135   1.278       .  A
Cu133      Cu134   2.376       .  S
C135        C731   1.476       .  S
C136        C698   1.476       .  S
C137        C721   1.475       .  S
C138        C711   1.477       .  S
C139        C738   1.476       .  S
C139        C140   1.399       .  A
C139        C144   1.409       .  A
C140        C141   1.394       .  A
C140        H145   1.085       .  S
C141        C432   1.464       .  S
C141        C142   1.394       .  A
C142        C143   1.402       .  A
C142        H146   1.085       .  S
C143        C688   1.490       .  S
C143        C144   1.412       .  A
C144        H147   1.083       .  S
C148        C681   1.485       .  S
C148        C149   1.407       .  A
C148        C153   1.400       .  A
C149        C150   1.410       .  A
C149        H154   1.081       .  S
C150        C701   1.499       .  S
C150        C151   1.407       .  A
C151        C152   1.397       .  A
C151        H155   1.083       .  S
C152        C412   1.468       .  S
C152        C153   1.395       .  A
C153        H156   1.084       .  S
O157       Cu165   2.014       .  S
O157        C167   1.277       .  A
O158       Cu165   2.018       .  S
O158        C168   1.279       .  A
O159       Cu165   2.002       .  S
O159        C169   1.276       .  A
O160       Cu165   2.009       .  S
O160        C170   1.276       .  A
O161       Cu166   2.016       .  S
O161        C170   1.278       .  A
O162       Cu166   2.015       .  S
O162        C169   1.277       .  A
O163       Cu166   1.999       .  S
O163        C168   1.276       .  A
O164       Cu166   1.999       .  S
O164        C167   1.274       .  A
Cu165      Cu166   2.366       .  S
C167        C668   1.509       .  S
C168        C661   1.482       .  S
C169        C691   1.470       .  S
C170        C678   1.473       .  S
C171        C651   1.499       .  S
C171        C172   1.415       .  A
C171        C176   1.407       .  A
C172        C173   1.412       .  A
C172        H177   1.080       .  S
C173        C811   1.496       .  S
C173        C174   1.402       .  A
C174        C175   1.391       .  A
C174        H178   1.085       .  S
C175        C387   1.466       .  S
C175        C176   1.395       .  A
C176        H179   1.084       .  S
C180        C671   1.488       .  S
C180        C181   1.405       .  A
C180        C185   1.408       .  A
C181        C182   1.399       .  A
C181        H186   1.084       .  S
C182        C441   1.471       .  S
C182        C183   1.397       .  A
C183        C184   1.398       .  A
C183        H187   1.084       .  S
C184        C638   1.474       .  S
C184        C185   1.403       .  A
C185        H188   1.083       .  S
C189        C881   1.477       .  S
C189        C190   1.400       .  A
C189        C194   1.404       .  A
C190        C191   1.398       .  A
C190        H195   1.084       .  S
C191        C396   1.472       .  S
C191        C192   1.401       .  A
C192        C193   1.405       .  A
C192        H196   1.084       .  S
C193        C631   1.488       .  S
C193        C194   1.408       .  A
C194        H197   1.084       .  S
O198       Cu206   2.045       .  S
O198        C208   1.284       .  A
O199       Cu206   2.034   1_546  S
O199        C209   1.282       .  A
O200       Cu206   1.995   1_545  S
O200        C210   1.273       .  A
O201       Cu206   1.988   1_556  S
O201        C211   1.273       .  A
O202       Cu207   2.027   1_565  S
O202        C211   1.281       .  A
O203       Cu207   2.041   1_554  S
O203        C210   1.283       .  A
O204       Cu207   1.996       .  S
O204        C209   1.274       .  A
O205       Cu207   2.005   1_564  S
O205        C208   1.274       .  A
Cu206      Cu207   2.367   1_564  S
C208        C628   1.483       .  S
C209        C621   1.497       .  S
C210        C648   1.482       .  S
C211        C641   1.485       .  S
C212        C791   1.478       .  S
C212        C213   1.402       .  A
C212        C217   1.403       .  A
C213        C214   1.399       .  A
C213        H218   1.084       .  S
C214        C405   1.471       .  S
C214        C215   1.398       .  A
C215        C216   1.403       .  A
C215        H219   1.084       .  S
C216        C608   1.484       .  S
C216        C217   1.406       .  A
C217        H220   1.083       .  S
C221        C658   1.502       .  S
C221        C222   1.408       .  A
C221        C226   1.413       .  A
C222        C223   1.396       .  A
C222        H227   1.082       .  S
C223        C423   1.464       .  S
C223        C224   1.391       .  A
C224        C225   1.396       .  A
C224        H228   1.085       .  S
C225        C598   1.472       .  S
C225        C226   1.405       .  A
C226        H229   1.081       .  S
C230        C891   1.476       .  S
C230        C231   1.400       .  A
C230        C235   1.405       .  A
C231        C232   1.398       .  A
C231        H236   1.084       .  S
C232        C414   1.471       .  S
C232        C233   1.399       .  A
C233        C234   1.401       .  A
C233        H237   1.084       .  S
C234        C588   1.478       .  S
C234        C235   1.406       .  A
C235        H238   1.084       .  S
O239       Cu247   2.005   1_554  S
O239        C249   1.275       .  A
O240       Cu247   2.013   1_545  S
O240        C250   1.278       .  A
O241       Cu247   2.015       .  S
O241        C251   1.278       .  A
O242       Cu247   2.019   1_544  S
O242        C252   1.277       .  A
O243       Cu248   1.988       .  S
O243        C252   1.274       .  A
O244       Cu248   2.002   1_566  S
O244        C251   1.276       .  A
O245       Cu248   1.993   1_556  S
O245        C250   1.275       .  A
O246       Cu248   1.998   1_565  S
O246        C249   1.274       .  A
Cu247      Cu248   2.358   1_566  S
C249        C611   1.506       .  S
C250        C601   1.478       .  S
C251        C591   1.474       .  S
C252        C581   1.502       .  S
C253        C568   1.501       .  S
C253        C254   1.412       .  A
C253        C258   1.407       .  A
C254        C255   1.405       .  A
C254        H259   1.079       .  S
C255        C871   1.471       .  S
C255        C256   1.397       .  A
C256        C257   1.390       .  A
C256        H260   1.085       .  S
C257        C443   1.461       .  S
C257        C258   1.393       .  A
C258        H261   1.082       .  S
C262        C821   1.476       .  S
C262        C263   1.401       .  A
C262        C267   1.406       .  A
C263        C264   1.398       .  A
C263        H268   1.084       .  S
C264        C434   1.470       .  S
C264        C265   1.397       .  A
C265        C266   1.403       .  A
C265        H269   1.085       .  S
C266        C561   1.483       .  S
C266        C267   1.407       .  A
C267        H270   1.083       .  S
C271        C551   1.477   1_455  S
C271        C272   1.405       .  A
C271        C276   1.399       .  A
C272        C273   1.406       .  A
C272        H277   1.084   1_455  S
C273        C901   1.484       .  S
C273        C274   1.404       .  A
C274        C275   1.402       .  A
C274        H278   1.084       .  S
C275        C416   1.473       .  S
C275        C276   1.399       .  A
C276        H279   1.085       .  S
O280       Cu288   2.011       .  S
O280        C290   1.277       .  A
O281       Cu288   2.019   1_545  S
O281        C291   1.279       .  A
O282       Cu288   2.003   1_545  S
O282        C292   1.276       .  A
O283       Cu288   2.007       .  S
O283        C293   1.276       .  A
O284       Cu289   2.007       .  S
O284        C293   1.278       .  A
O285       Cu289   2.004   1_545  S
O285        C292   1.277       .  A
O286       Cu289   2.010   1_545  S
O286        C291   1.276       .  A
O287       Cu289   2.026       .  S
O287        C290   1.280       .  A
Cu288      Cu289   2.369       .  S
C290        C548   1.484       .  S
C291        C558   1.475       .  S
C292        C541   1.488       .  S
C293        C571   1.487       .  S
C294        C618   1.482       .  S
C294        C295   1.400       .  A
C294        C299   1.410       .  A
C295        C296   1.396       .  A
C295        H300   1.084       .  S
C296        C430   1.469       .  S
C296        C297   1.397       .  A
C297        C298   1.406       .  A
C297        H301   1.084       .  S
C298        C528   1.502       .  S
C298        C299   1.414       .  A
C299        H302   1.082       .  S
C303        C518   1.496       .  S
C303        C304   1.412       .  A
C303        C308   1.406       .  A
C304        C305   1.412       .  A
C304        H309   1.083       .  S
C305        C578   1.493       .  S
C305        C306   1.404       .  A
C306        C307   1.397       .  A
C306        H310   1.084       .  S
C307        C452   1.475       .  S
C307        C308   1.400       .  A
C308        H311   1.084       .  S
C312        C508   1.478       .  S
C312        C313   1.404       .  A
C312        C317   1.400       .  A
C313        C314   1.404       .  A
C313        H318   1.084       .  S
C314        C538   1.475       .  S
C314        C315   1.401       .  A
C315        C316   1.398       .  A
C315        H319   1.084       .  S
C316        C421   1.469       .  S
C316        C317   1.398       .  A
C317        H320   1.085       .  S
O321       Cu329   2.008       .  S
O321        C331   1.276       .  A
O322       Cu329   2.018       .  S
O322        C332   1.279       .  A
O323       Cu329   2.003       .  S
O323        C333   1.276       .  A
O324       Cu329   2.011       .  S
O324        C334   1.278       .  A
O325       Cu330   2.013       .  S
O325        C334   1.278       .  A
O326       Cu330   2.004       .  S
O326        C333   1.276       .  A
O327       Cu330   2.012       .  S
O327        C332   1.277       .  A
O328       Cu330   2.016       .  S
O328        C331   1.279       .  A
Cu329      Cu330   2.368       .  S
C331        C521   1.475       .  S
C332        C531   1.478       .  S
C333        C511   1.499       .  S
C334        C498   1.479       .  S
C335        C488   1.494       .  S
C335        C336   1.410       .  A
C335        C340   1.405       .  A
C336        C337   1.404       .  A
C336        H341   1.082       .  S
C337        C861   1.472       .  S
C337        C338   1.398       .  A
C338        C339   1.394       .  A
C338        H342   1.084       .  S
C339        C407   1.466       .  S
C339        C340   1.396       .  A
C340        H343   1.084       .  S
C344        C481   1.497       .  S
C344        C345   1.410       .  A
C344        C349   1.408       .  A
C345        C346   1.406       .  A
C345        H350   1.083       .  S
C346        C831   1.478       .  S
C346        C347   1.400       .  A
C347        C348   1.398       .  A
C347        H351   1.084       .  S
C348        C394   1.474       .  S
C348        C349   1.400       .  A
C349        H352   1.084       .  S
C353        C501   1.498       .  S
C353        C354   1.406       .  A
C353        C358   1.414       .  A
C354        C355   1.397       .  A
C354        H359   1.083       .  S
C355        C389   1.471       .  S
C355        C356   1.393       .  A
C356        C357   1.402       .  A
C356        H360   1.085       .  S
C357        C468   1.490       .  S
C357        C358   1.413       .  A
C358        H361   1.083       .  S
C362        C911   1.481       .  S
C362        C363   1.399       .  A
C362        C367   1.409       .  A
C363        C364   1.395       .  A
C363        H368   1.085       .  S
C364        C450   1.469       .  S
C364        C365   1.397       .  A
C365        C366   1.407       .  A
C365        H369   1.084       .  S
C366        C458   1.501   1_455  S
C366        C367   1.415       .  A
C367        H370   1.082       .  S
O371       Cu379   2.014       .  S
O371        C381   1.278       .  A
O372       Cu379   2.026   1_545  S
O372        C382   1.279       .  A
O373       Cu379   2.008       .  S
O373        C383   1.278       .  A
O374       Cu379   2.007   1_545  S
O374        C384   1.275       .  A
O375       Cu380   1.998       .  S
O375        C384   1.276       .  A
O376       Cu380   2.005   1_565  S
O376        C383   1.277       .  A
O377       Cu380   2.009       .  S
O377        C382   1.277       .  A
O378       Cu380   2.021   1_565  S
O378        C381   1.278       .  A
Cu379      Cu380   2.368   1_565  S
C381        C478   1.478       .  S
C382        C461   1.479       .  S
C383        C491   1.474       .  S
C384        C471   1.501       .  S
C385        C386   1.402       .  A
C385        C390   1.405       .  A
C386        C387   1.398       .  A
C386        H391   1.084       .  S
C387        C388   1.396       .  A
C388        C389   1.402       .  A
C388        H392   1.084       .  S
C389        C390   1.401       .  A
C390        H393   1.084       .  S
C394        C395   1.403       .  A
C394        C399   1.402       .  A
C395        C396   1.402       .  A
C395        H400   1.084       .  S
C396        C397   1.401       .  A
C397        C398   1.399       .  A
C397        H401   1.084       .  S
C398        C399   1.403       .  A
C399        H402   1.084       .  S
C403        C404   1.400       .  A
C403        C408   1.396       .  A
C404        C405   1.401       .  A
C404        H409   1.084       .  S
C405        C406   1.402       .  A
C406        C407   1.401       .  A
C406        H410   1.084       .  S
C407        C408   1.403       .  A
C408        H411   1.084       .  S
C412        C413   1.399       .  A
C412        C417   1.402       .  A
C413        C414   1.401       .  A
C413        H418   1.084       .  S
C414        C415   1.402       .  A
C415        C416   1.402       .  A
C415        H419   1.084       .  S
C416        C417   1.402       .  A
C417        H420   1.084       .  S
C421        C422   1.402       .  A
C421        C426   1.404       .  A
C422        C423   1.396       .  A
C422        H427   1.084       .  S
C423        C424   1.399       .  A
C424        C425   1.399       .  A
C424        H428   1.085       .  S
C425        C426   1.401       .  A
C426        H429   1.084       .  S
C430        C431   1.397       .  A
C430        C435   1.401       .  A
C431        C432   1.402       .  A
C431        H436   1.084       .  S
C432        C433   1.399       .  A
C433        C434   1.399       .  A
C433        H437   1.084       .  S
C434        C435   1.403       .  A
C435        H438   1.084       .  S
C439        C440   1.403       .  A
C439        C444   1.395       .  A
C440        C441   1.403       .  A
C440        H445   1.083       .  S
C441        C442   1.403       .  A
C442        C443   1.396       .  A
C442        H446   1.085       .  S
C443        C444   1.400       .  A
C444        H447   1.085       .  S
C448        C449   1.402       .  A
C448        C453   1.405       .  A
C449        C450   1.397       .  A
C449        H454   1.084       .  S
C450        C451   1.400       .  A
C451        C452   1.403       .  A
C451        H455   1.084       .  S
C452        C453   1.402       .  A
C453        H456   1.084       .  S
C457        C458   1.420       .  A
C457        C462   1.413       .  A
C457       Br464   1.932       .  S
C458        C459   1.421   1_655  A
C459        C460   1.406   1_455  A
C459       Br466   1.936       .  S
C460        C461   1.404       .  A
C460       Br465   1.929   1_655  S
C461        C462   1.408       .  A
C462       Br463   1.931       .  S
C467        C468   1.412       .  A
C467        C472   1.411       .  A
C467       Br474   1.938       .  S
C468        C469   1.407       .  A
C469        C470   1.405       .  A
C469       Br476   1.923       .  S
C470        C471   1.423       .  A
C470       Br475   1.940       .  S
C471        C472   1.425       .  A
C472       Br473   1.936       .  S
C477        C478   1.406       .  A
C477        C482   1.411       .  A
C477       Br484   1.926       .  S
C478        C479   1.407       .  A
C479        C480   1.407       .  A
C479       Br486   1.929       .  S
C480        C481   1.418       .  A
C480       Br485   1.935       .  S
C481        C482   1.420       .  A
C482       Br483   1.931       .  S
C487        C488   1.419       .  A
C487        C492   1.409       .  A
C487       Br494   1.933       .  S
C488        C489   1.418       .  A
C489        C490   1.401   1_455  A
C489       Br496   1.936       .  S
C490        C491   1.406       .  A
C490       Br495   1.931       .  S
C491        C492   1.410   1_655  A
C492       Br493   1.930   1_565  S
C497        C498   1.408       .  A
C497        C502   1.407       .  A
C497       Br504   1.932       .  S
C498        C499   1.409       .  A
C499        C500   1.407       .  A
C499       Br506   1.928       .  S
C500        C501   1.418       .  A
C500       Br505   1.934       .  S
C501        C502   1.416       .  A
C502       Br503   1.921       .  S
C507        C508   1.404       .  A
C507        C512   1.409       .  A
C507       Br514   1.935       .  S
C508        C509   1.406       .  A
C509        C510   1.407       .  A
C509       Br516   1.938       .  S
C510        C511   1.426       .  A
C510       Br515   1.939       .  S
C511        C512   1.427       .  A
C512       Br513   1.937       .  S
C517        C518   1.418       .  A
C517        C522   1.409       .  A
C517       Br524   1.933       .  S
C518        C519   1.417       .  A
C519        C520   1.405       .  A
C519       Br526   1.918       .  S
C520        C521   1.402       .  A
C520       Br525   1.929       .  S
C521        C522   1.407       .  A
C522       Br523   1.926       .  S
C527        C528   1.421       .  A
C527        C532   1.412       .  A
C527       Br534   1.930       .  S
C528        C529   1.422       .  A
C529        C530   1.406       .  A
C529       Br536   1.936       .  S
C530        C531   1.404       .  A
C530       Br535   1.930       .  S
C531        C532   1.407       .  A
C532       Br533   1.931       .  S
C537        C538   1.406       .  A
C537        C542   1.406       .  A
C537       Br544   1.934       .  S
C538        C539   1.405       .  A
C539        C540   1.408       .  A
C539       Br546   1.932       .  S
C540        C541   1.421   1_455  A
C540       Br545   1.934   1_455  S
C541        C542   1.419   1_655  A
C542       Br543   1.935       .  S
C547        C548   1.413       .  A
C547        C552   1.410   1_655  A
C547       Br554   1.931   1_655  S
C548        C549   1.411       .  A
C549        C550   1.406       .  A
C549       Br556   1.913       .  S
C550        C551   1.405       .  A
C550       Br555   1.934       .  S
C551        C552   1.408   1_655  A
C552       Br553   1.929       .  S
C557        C558   1.405       .  A
C557        C562   1.403       .  A
C557       Br564   1.922       .  S
C558        C559   1.409       .  A
C559        C560   1.411       .  A
C559       Br566   1.929       .  S
C560        C561   1.414       .  A
C560       Br565   1.930       .  S
C561        C562   1.412       .  A
C562       Br563   1.935       .  S
C567        C568   1.421       .  A
C567        C572   1.411       .  A
C567       Br574   1.933       .  S
C568        C569   1.417       .  A
C569        C570   1.396       .  A
C569       Br576   1.937       .  S
C570        C571   1.409       .  A
C570       Br575   1.927       .  S
C571        C572   1.417       .  A
C572       Br573   1.932       .  S
C577        C578   1.407       .  A
C577        C582   1.402       .  A
C577       Br584   1.921       .  S
C578        C579   1.414       .  A
C579        C580   1.414       .  A
C579       Br586   1.937       .  S
C580        C581   1.424       .  A
C580       Br585   1.934       .  S
C581        C582   1.420       .  A
C582       Br583   1.940       .  S
C587        C588   1.410       .  A
C587        C592   1.409       .  A
C587       Br594   1.930       .  S
C588        C589   1.409       .  A
C589        C590   1.406       .  A
C589       Br596   1.932       .  S
C590        C591   1.411       .  A
C590       Br595   1.931       .  S
C591        C592   1.410       .  A
C592       Br593   1.929   1_565  S
C597        C598   1.405       .  A
C597        C602   1.409       .  A
C597       Br604   1.929       .  S
C598        C599   1.408       .  A
C599        C600   1.403       .  A
C599       Br606   1.934       .  S
C600        C601   1.414       .  A
C600       Br605   1.934       .  S
C601        C602   1.415       .  A
C602       Br603   1.931   1_556  S
C607        C608   1.408       .  A
C607        C612   1.408       .  A
C607       Br614   1.940       .  S
C608        C609   1.406       .  A
C609        C610   1.409       .  A
C609       Br616   1.937       .  S
C610        C611   1.429       .  A
C610       Br615   1.940       .  S
C611        C612   1.428       .  A
C612       Br613   1.939       .  S
C617        C618   1.407       .  A
C617        C622   1.413       .  A
C617       Br624   1.930       .  S
C618        C619   1.406       .  A
C619        C620   1.408       .  A
C619       Br626   1.934       .  S
C620        C621   1.422       .  A
C620       Br625   1.935       .  S
C621        C622   1.420       .  A
C622       Br623   1.932       .  S
C627        C628   1.407       .  A
C627        C632   1.408       .  A
C627       Br634   1.923       .  S
C628        C629   1.407       .  A
C629        C630   1.409       .  A
C629       Br636   1.922   1_565  S
C630        C631   1.415       .  A
C630       Br635   1.931       .  S
C631        C632   1.414       .  A
C632       Br633   1.933       .  S
C637        C638   1.406       .  A
C637        C642   1.409       .  A
C637       Br644   1.930       .  S
C638        C639   1.406       .  A
C639        C640   1.405       .  A
C639       Br646   1.935       .  S
C640        C641   1.420       .  A
C640       Br645   1.936       .  S
C641        C642   1.417       .  A
C642       Br643   1.932       .  S
C647        C648   1.404       .  A
C647        C652   1.402       .  A
C647       Br654   1.929       .  S
C648        C649   1.408       .  A
C649        C650   1.414       .  A
C649       Br656   1.924   1_554  S
C650        C651   1.420       .  A
C650       Br655   1.932       .  S
C651        C652   1.420       .  A
C652       Br653   1.936       .  S
C657        C658   1.420       .  A
C657        C662   1.401       .  A
C657       Br664   1.938       .  S
C658        C659   1.421       .  A
C659        C660   1.411       .  A
C659       Br666   1.933       .  S
C660        C661   1.412       .  A
C660       Br665   1.931       .  S
C661        C662   1.410       .  A
C662       Br663   1.934       .  S
C667        C668   1.429       .  A
C667        C672   1.408       .  A
C667       Br674   1.940       .  S
C668        C669   1.429       .  A
C669        C670   1.411       .  A
C669       Br676   1.938       .  S
C670        C671   1.408       .  A
C670       Br675   1.936       .  S
C671        C672   1.409       .  A
C672       Br673   1.941       .  S
C677        C678   1.406       .  A
C677        C682   1.406       .  A
C677       Br684   1.931       .  S
C678        C679   1.406       .  A
C679        C680   1.407       .  A
C679       Br686   1.920       .  S
C680        C681   1.413       .  A
C680       Br685   1.931       .  S
C681        C682   1.417       .  A
C682       Br683   1.934       .  S
C687        C688   1.417       .  A
C687        C692   1.402       .  A
C687       Br694   1.935       .  S
C688        C689   1.417       .  A
C689        C690   1.411       .  A
C689       Br696   1.930       .  S
C690        C691   1.407       .  A
C690       Br695   1.930       .  S
C691        C692   1.402       .  A
C692       Br693   1.927       .  S
C697        C698   1.408   1_455  A
C697        C702   1.410       .  A
C697       Br704   1.928   1_556  S
C698        C699   1.406       .  A
C699        C700   1.404   1_655  A
C699       Br706   1.929       .  S
C700        C701   1.420       .  A
C700       Br705   1.936       .  S
C701        C702   1.421       .  A
C702       Br703   1.933       .  S
C707        C708   1.421       .  A
C707        C712   1.404   1_455  A
C707       Br714   1.937       .  S
C708        C709   1.420   1_455  A
C709        C710   1.410       .  A
C709       Br716   1.933       .  S
C710        C711   1.409       .  A
C710       Br715   1.929       .  S
C711        C712   1.407       .  A
C712       Br713   1.932   1_655  S
C717        C718   1.420       .  A
C717        C722   1.401       .  A
C717       Br724   1.937       .  S
C718        C719   1.421       .  A
C719        C720   1.411       .  A
C719       Br726   1.932       .  S
C720        C721   1.410       .  A
C720       Br725   1.929       .  S
C721        C722   1.405       .  A
C722       Br723   1.932       .  S
C727        C728   1.421       .  A
C727        C732   1.403       .  A
C727       Br734   1.937       .  S
C728        C729   1.420       .  A
C729        C730   1.411       .  A
C729       Br736   1.932       .  S
C730        C731   1.409       .  A
C730       Br735   1.928   1_554  S
C731        C732   1.404       .  A
C732       Br733   1.930       .  S
C737        C738   1.407       .  A
C737        C742   1.410       .  A
C737       Br744   1.930       .  S
C738        C739   1.407       .  A
C739        C740   1.406       .  A
C739       Br746   1.932       .  S
C740        C741   1.414       .  A
C740       Br745   1.933       .  S
C741        C742   1.416       .  A
C742       Br743   1.931       .  S
C747        C748   1.410       .  A
C747        C752   1.408       .  A
C747       Br754   1.930       .  S
C748        C749   1.410       .  A
C749        C750   1.407       .  A
C749       Br756   1.931       .  S
C750        C751   1.409       .  A
C750       Br755   1.931       .  S
C751        C752   1.409       .  A
C752       Br753   1.930       .  S
C757        C758   1.414       .  A
C757        C762   1.408       .  A
C757       Br764   1.932       .  S
C758        C759   1.416       .  A
C759        C760   1.409   1_655  A
C759       Br766   1.932       .  S
C760        C761   1.407   1_455  A
C760       Br765   1.930       .  S
C761        C762   1.409       .  A
C762       Br763   1.932       .  S
C767        C768   1.407       .  A
C767        C772   1.408   1_455  A
C767       Br774   1.930       .  S
C768        C769   1.408       .  A
C769        C770   1.408       .  A
C769       Br776   1.931       .  S
C770        C771   1.414   1_455  A
C770       Br775   1.932   1_554  S
C771        C772   1.414       .  A
C772       Br773   1.932       .  S
C777        C778   1.407       .  A
C777        C782   1.408       .  A
C777       Br784   1.933       .  S
C778        C779   1.404       .  A
C779        C780   1.408       .  A
C779       Br786   1.934       .  S
C780        C781   1.423       .  A
C780       Br785   1.935       .  S
C781        C782   1.419       .  A
C782       Br783   1.934       .  S
C787        C788   1.419       .  A
C787        C792   1.410       .  A
C787       Br794   1.933       .  S
C788        C789   1.421       .  A
C789        C790   1.405       .  A
C789       Br796   1.936       .  S
C790        C791   1.407       .  A
C790       Br795   1.936       .  S
C791        C792   1.406       .  A
C792       Br793   1.932       .  S
C797        C798   1.405       .  A
C797        C802   1.408       .  A
C797       Br804   1.926       .  S
C798        C799   1.407       .  A
C799        C800   1.409       .  A
C799       Br806   1.924       .  S
C800        C801   1.418       .  A
C800       Br805   1.931       .  S
C801        C802   1.420       .  A
C802       Br803   1.936       .  S
C807        C808   1.409       .  A
C807        C812   1.415       .  A
C807       Br814   1.925       .  S
C808        C809   1.402       .  A
C809        C810   1.398       .  A
C809       Br816   1.928       .  S
C810        C811   1.419       .  A
C810       Br815   1.937       .  S
C811        C812   1.418       .  A
C812       Br813   1.930       .  S
C817        C818   1.415       .  A
C817        C822   1.408       .  A
C817       Br824   1.932       .  S
C818        C819   1.416       .  A
C819        C820   1.407       .  A
C819       Br826   1.933       .  S
C820        C821   1.406       .  A
C820       Br825   1.931       .  S
C821        C822   1.407       .  A
C822       Br823   1.931       .  S
C827        C828   1.416       .  A
C827        C832   1.410       .  A
C827       Br834   1.931       .  S
C828        C829   1.416       .  A
C829        C830   1.406       .  A
C829       Br836   1.934       .  S
C830        C831   1.407       .  A
C830       Br835   1.932       .  S
C831        C832   1.407       .  A
C832       Br833   1.930       .  S
C837        C838   1.406       .  A
C837        C842   1.407       .  A
C837       Br844   1.931       .  S
C838        C839   1.407       .  A
C839        C840   1.407       .  A
C839       Br846   1.932       .  S
C840        C841   1.415       .  A
C840       Br845   1.932       .  S
C841        C842   1.416       .  A
C842       Br843   1.932       .  S
C847        C848   1.410       .  A
C847        C852   1.411       .  A
C847       Br854   1.929       .  S
C848        C849   1.408       .  A
C849        C850   1.405       .  A
C849       Br856   1.932       .  S
C850        C851   1.413       .  A
C850       Br855   1.934       .  S
C851        C852   1.411       .  A
C852       Br853   1.929       .  S
C857        C858   1.411       .  A
C857        C862   1.404       .  A
C857       Br864   1.933       .  S
C858        C859   1.413       .  A
C859        C860   1.407       .  A
C859       Br866   1.931       .  S
C860        C861   1.406       .  A
C860       Br865   1.930       .  S
C861        C862   1.408       .  A
C862       Br863   1.932       .  S
C867        C868   1.413       .  A
C867        C872   1.408       .  A
C867       Br874   1.930       .  S
C868        C869   1.409       .  A
C869        C870   1.402       .  A
C869       Br876   1.934       .  S
C870        C871   1.410       .  A
C870       Br875   1.934       .  S
C871        C872   1.406       .  A
C872       Br873   1.929       .  S
C877        C878   1.413       .  A
C877        C882   1.406       .  A
C877       Br884   1.933       .  S
C878        C879   1.412       .  A
C879        C880   1.409       .  A
C879       Br886   1.930       .  S
C880        C881   1.408       .  A
C880       Br885   1.930       .  S
C881        C882   1.408       .  A
C882       Br883   1.932       .  S
C887        C888   1.414       .  A
C887        C892   1.406       .  A
C887       Br894   1.932       .  S
C888        C889   1.412       .  A
C889        C890   1.409       .  A
C889       Br896   1.930       .  S
C890        C891   1.408       .  A
C890       Br895   1.930       .  S
C891        C892   1.407       .  A
C892       Br893   1.931       .  S
C897        C898   1.409       .  A
C897        C902   1.410       .  A
C897       Br904   1.929       .  S
C898        C899   1.410       .  A
C899        C900   1.408       .  A
C899       Br906   1.931       .  S
C900        C901   1.411       .  A
C900       Br905   1.932       .  S
C901        C902   1.412       .  A
C902       Br903   1.931       .  S
C907        C908   1.414       .  A
C907        C912   1.408       .  A
C907       Br914   1.933   1_455  S
C908        C909   1.415       .  A
C909        C910   1.411       .  A
C909       Br916   1.931       .  S
C910        C911   1.408       .  A
C910       Br915   1.929       .  S
C911        C912   1.409       .  A
C912       Br913   1.932   1_455  S
C917        C918   1.415       .  A
C917        C922   1.409       .  A
C917       Br924   1.931       .  S
C918        C919   1.415       .  A
C919        C920   1.407       .  A
C919       Br926   1.933   1_455  S
C920        C921   1.408       .  A
C920       Br925   1.933   1_455  S
C921        C922   1.406       .  A
C922       Br923   1.929       .  S
C927        C928   1.428       .  A
C927        C932   1.410       .  A
C927       Br934   1.939       .  S
C928        C929   1.430       .  A
C929        C930   1.410       .  A
C929       Br936   1.939   1_455  S
C930        C931   1.407       .  A
C930       Br935   1.937   1_455  S
C931        C932   1.410       .  A
C932       Br933   1.939       .  S
