geometry optimzed in LAMMPS
_audit_creation_date              2020-11-30 
_audit_creation_method            'lammps2cif' 
_symmetry_space_group_name_H-M    'P1' 
_symmetry_Int_Tables_number       1 
_symmetry_cell_setting            triclinic 
loop_ 
_symmetry_equiv_pos_as_xyz 
  x,y,z 
_cell_length_a                    42.45956879 
_cell_length_b                    42.28754414369076 
_cell_length_c                    45.442131785457185 
_cell_angle_alpha                 89.9093193804884 
_cell_angle_beta                  90.12431445614563 
_cell_angle_gamma                 120.41492138527305 
loop_ 
_atom_site_label 
_atom_site_type_symbol 
_atom_site_fract_x 
_atom_site_fract_y 
_atom_site_fract_z 
_atom_site_charge 
C1          C  0.46819127  0.07593213  0.31871944     0.43100
N2          N  0.49622263  0.06506325  0.28406711     0.02000
C3          C  0.41814942  0.90817832  0.19750345    -0.05900
H4          H  0.42383700  0.88648155  0.31510402     0.07500
C5          C  0.56324615  0.96061399  0.30538708    -0.06300
Co6        Co  0.44389929  0.99589076  0.25293750     0.74200
N7          N  0.43762751  0.93177349  0.28529443    -0.25400
Co8        Co  0.47275676  0.93229699  0.25202784     0.74100
C9          C  0.53738422  0.92673403  0.32010783     0.43200
N10         N  0.58051154  0.04507604  0.28274751     0.01600
N11         N  0.51040067  0.93629547  0.28405141     0.01700
N12         N  0.40078258  0.95054895  0.20128696    -0.46300
H13         H  0.41414974  0.02330837  0.30864167     0.07500
N14         N  0.42798030  0.95694142  0.28503915     0.02000
N15         N  0.50993717  0.93563473  0.21918434     0.01700
C16         C  0.53892939  0.92500990  0.18529923     0.43300
N17         N  0.57005519  0.06965642  0.28353438    -0.24900
C18         C  0.43980670  0.03842260  0.20065875    -0.05800
N19         N  0.50071040  0.08967326  0.30441504    -0.46000
N20         N  0.50583799  0.91135387  0.19863728    -0.46200
C21         C  0.46438134  0.07118868  0.18413823     0.43100
N22         N  0.42513112  0.95530107  0.22152269     0.02000
N23         N  0.56868468  0.06857126  0.21827335    -0.24900
N24         N  0.46260680  0.03680201  0.28405725    -0.25400
N25         N  0.57901917  0.04389708  0.21882142     0.01600
H26         H  0.58226360  0.11398862  0.18871761     0.07500
H27         H  0.59253887  0.97788141  0.19561924     0.07500
N28         N  0.43579515  0.93091769  0.22019959    -0.25500
N29         N  0.54418399  0.96432349  0.28356071    -0.25100
N30         N  0.49445851  0.06273091  0.21883073     0.02000
C31         C  0.40119589  0.92530828  0.32309913     0.43400
C32         C  0.58724929  0.09226963  0.30647739    -0.06300
N33         N  0.54368081  0.96373925  0.21988510    -0.25100
H34         H  0.59200628  0.97873097  0.30971504     0.07500
N35         N  0.40616586  0.95380716  0.30679594    -0.46300
H36         H  0.58471125  0.11550479  0.31285961     0.07500
C37         C  0.60614918  0.07624456  0.18092527     0.43200
C38         C  0.44306281  0.04125617  0.30487540    -0.05800
Co39       Co  0.53308095  0.06791862  0.25114655     0.73800
N40         N  0.60431325  0.04968657  0.30347319    -0.46000
C41         C  0.39504187  0.92161008  0.18521158     0.43500
N42         N  0.49791617  0.08520911  0.19697260    -0.46000
Co43       Co  0.56216855  0.00442305  0.25127565     0.73900
C44         C  0.56366592  0.95961655  0.19930609    -0.06300
C45         C  0.42160955  0.90995504  0.30884771    -0.05900
N46         N  0.46067451  0.03516571  0.22092178    -0.25400
N47         N  0.50517555  0.91278837  0.30552179    -0.46200
H48         H  0.42053177  0.88491234  0.19093145     0.07500
C49         C  0.58491000  0.09075577  0.19497553    -0.06300
Cl50       Cl  0.50302408  0.00016299  0.25180511    -0.49300
C51         C  0.61005943  0.07873173  0.31951299     0.43200
H52         H  0.41064233  0.02077214  0.19918365     0.07400
N53         N  0.60146827  0.04771193  0.19721486    -0.46000
C54         C  0.07645615  0.60367374  0.32117289     0.43100
N55         N  0.06691851  0.56676615  0.28527225     0.02000
C56         C  0.91272815  0.49285430  0.19643510    -0.05900
H57         H  0.88630645  0.46836115  0.31108694     0.07500
C58         C  0.95888499  0.39772654  0.30723446    -0.06300
Co59       Co  0.00079521  0.55352222  0.25167023     0.74200
N60         N  0.93428778  0.49800126  0.28367469    -0.25400
Co61       Co  0.93445886  0.46165335  0.25198350     0.74100
C62         C  0.92584739  0.39089237  0.32179288     0.43200
N63         N  0.04289443  0.46127024  0.28586491     0.01600
N64         N  0.93600246  0.42709710  0.28513929     0.01700
N65         N  0.95766308  0.55228107  0.19876301    -0.46300
H66         H  0.02664232  0.60853014  0.30918618     0.07500
N67         N  0.95995424  0.53296523  0.28282415     0.02000
N68         N  0.93746132  0.42724866  0.22000178     0.01700
C69         C  0.92915331  0.39232130  0.18317267     0.43300
N70         N  0.06879707  0.49614754  0.28639854    -0.24900
C71         C  0.04667487  0.59737408  0.19888731    -0.05800
N72         N  0.08990589  0.58463225  0.30719358    -0.46000
N73         N  0.91525953  0.41071829  0.19736278    -0.46200
C74         C  0.07975635  0.60400855  0.18415303     0.43100
N75         N  0.96131923  0.53240440  0.21943642     0.02000
N76         N  0.06984393  0.49540056  0.22168358    -0.24900
N77         N  0.04008886  0.57392263  0.28400364    -0.25400
N78         N  0.04420057  0.46044213  0.22268380     0.01600
H79         H  0.11731386  0.52487461  0.19369732     0.07500
H80         H  0.97839177  0.38657921  0.19500538     0.07500
N81         N  0.93540547  0.49753162  0.21898859    -0.25500
N82         N  0.96303742  0.42020334  0.28507935    -0.25100
N83         N  0.06819488  0.56636212  0.22017864     0.02000
C84         C  0.92501430  0.53069584  0.31750714     0.43400
C85         C  0.09161651  0.50067723  0.30880402    -0.06300
N86         N  0.96414346  0.41985651  0.22134711    -0.25100
H87         H  0.97628740  0.38653457  0.31194910     0.07500
N88         N  0.95529248  0.55330544  0.30236358    -0.46300
H89         H  0.11624990  0.52593050  0.31447198     0.07500
C90         C  0.07871061  0.46240433  0.18778530     0.43200
C91         C  0.04388732  0.59691551  0.30558646    -0.05800
Co92       Co  0.06974304  0.53195538  0.25336199     0.73800
N93         N  0.04674187  0.44120788  0.30621885    -0.46000
C94         C  0.92776263  0.52952698  0.18320254     0.43500
N95         N  0.09210674  0.58428607  0.19879686    -0.46000
Co96       Co  0.00345215  0.44017554  0.25375208     0.73900
C97         C  0.96089134  0.39776733  0.19918158    -0.06300
C98         C  0.91082320  0.49368477  0.30537456    -0.05900
N99         N  0.04156345  0.57383105  0.22044514    -0.25400
N100        N  0.91237704  0.40933939  0.30675630    -0.46200
H101        H  0.88825155  0.46748429  0.19071200     0.07500
C102        C  0.09300577  0.49954701  0.19976220    -0.06300
Cl103      Cl  0.00212567  0.49684885  0.25268838    -0.49300
C104        C  0.07661863  0.46389740  0.32173841     0.43200
H105        H  0.02989617  0.60944939  0.19488988     0.07400
N106        N  0.04858166  0.43995908  0.20310628    -0.46000
C107        C  0.39292369  0.46191027  0.31725196     0.43100
N108        N  0.43289747  0.49182331  0.28316619     0.02000
C109        C  0.51252869  0.41543583  0.19673183    -0.05900
H110        H  0.53224496  0.41517859  0.31456902     0.07500
C111        C  0.60500990  0.55790631  0.30723900    -0.06300
Co112      Co  0.44883265  0.44069948  0.24943951     0.74200
N113        N  0.50350229  0.43097559  0.28385225    -0.25400
Co114      Co  0.54126440  0.46792706  0.25286482     0.74100
C115        C  0.61382952  0.53270651  0.32125324     0.43200
N116        N  0.53825091  0.57477040  0.28586983     0.01600
N117        N  0.57478974  0.50432692  0.28663642     0.01700
N118        N  0.45366145  0.40146524  0.19633611    -0.46300
H119        H  0.38844788  0.40759434  0.30301301     0.07500
N120        N  0.46861523  0.42093033  0.28155527     0.02000
N121        N  0.57743773  0.50637359  0.22161728     0.01700
C122        C  0.61725878  0.53566532  0.18764037     0.43300
N123        N  0.50352760  0.56554687  0.28529468    -0.24900
C124        C  0.40594154  0.44231866  0.19586707    -0.05800
N125        N  0.41360975  0.49558161  0.30456705    -0.46000
N126        N  0.59708313  0.50229922  0.20074264    -0.46200
C127        C  0.39725603  0.46817020  0.18252189     0.43100
N128        N  0.47219386  0.42412836  0.21798106     0.02000
N129        N  0.50646450  0.56757992  0.22030316    -0.24900
N130        N  0.42569642  0.45770305  0.28107254    -0.25400
N131        N  0.54123014  0.57712454  0.22222146     0.01600
H132        H  0.47788418  0.58366176  0.18960747     0.07500
H133        H  0.62083209  0.59000591  0.19989512     0.07500
N134        N  0.50681648  0.43300243  0.21901485    -0.25500
N135        N  0.58115173  0.53826121  0.28624545    -0.25100
N136        N  0.43547738  0.49483353  0.21800981     0.02000
C137        C  0.46986717  0.39064568  0.31857296     0.43400
C138        C  0.49792033  0.58308631  0.30762751    -0.06300
N139        N  0.58414418  0.54038765  0.22298183    -0.25100
H140        H  0.61644356  0.58694537  0.31100060     0.07500
N141        N  0.44775522  0.39683285  0.30160194    -0.46300
H142        H  0.47248603  0.58197458  0.31260184     0.07500
C143        C  0.54012438  0.60723437  0.18492430     0.43200
C144        C  0.40067274  0.43696457  0.30107076    -0.05800
Co145      Co  0.46894460  0.53066293  0.25173660     0.73800
N146        N  0.55703614  0.59771166  0.30729202    -0.46000
C147        C  0.47702469  0.39485976  0.18156427     0.43500
N148        N  0.41658015  0.50040592  0.19729310    -0.46000
Co149      Co  0.56119179  0.55779930  0.25435878     0.73900
C150        C  0.60897949  0.56076864  0.20277083    -0.06300
C151        C  0.50710397  0.41316440  0.30708281    -0.05900
N152        N  0.42916845  0.46093624  0.21758820    -0.25400
N153        N  0.59429620  0.49971987  0.30746033    -0.46200
H154        H  0.53799610  0.41650794  0.19197226     0.07500
C155        C  0.50293738  0.58535598  0.19693524    -0.06300
Cl156      Cl  0.50504553  0.49923430  0.25214602    -0.49300
C157        C  0.53356272  0.60385148  0.32232364     0.43200
H158        H  0.39496071  0.41355966  0.19111508     0.07400
N159        N  0.56201876  0.60075483  0.20190533    -0.46000
C160        C  0.81411303  0.47506963  0.99713458     0.43100
N161        N  0.79440476  0.51004559  0.01108491     0.02000
C162        C  0.75599095  0.61409194  0.42240210    -0.05900
H163        H  0.89065338  0.64270531  0.41512340     0.07500
C164        C  0.90548615  0.67694712  0.02936843    -0.06300
Co165      Co  0.77660596  0.53911479  0.46382856     0.74200
N166        N  0.84343836  0.60463122  0.44078405    -0.25400
Co167      Co  0.82324191  0.63370720  0.46474487     0.74100
C168        C  0.92799378  0.69224109  0.50218837     0.43200
N169        N  0.84061048  0.59704329  0.06313250     0.01600
N170        N  0.87151365  0.66140173  0.48952700     0.01700
N171        N  0.72750154  0.55231340  0.42475856    -0.46300
H172        H  0.81079410  0.48275053  0.45414525     0.07500
N173        N  0.82507427  0.56846281  0.44179741     0.02000
N174        N  0.80148948  0.66036897  0.48959172     0.01700
C175        C  0.77610422  0.69233549  0.00575639     0.43300
N176        N  0.82081160  0.56122101  0.05979891    -0.24900
C177        C  0.69437229  0.48942923  0.47543540    -0.05800
N178        N  0.80499787  0.48756437  0.02094399    -0.46000
N179        N  0.78614201  0.67868888  0.47897334    -0.46200
C180        C  0.67066729  0.47464990  0.99784073     0.43100
N181        N  0.75685596  0.56783109  0.44153798     0.02000
N182        N  0.75348256  0.56154694  0.06145476    -0.24900
N183        N  0.79668925  0.51056333  0.48666138    -0.25400
N184        N  0.77114560  0.59741277  0.06529880     0.01600
H185        H  0.70640217  0.51644572  0.08168427     0.07500
H186        H  0.78090487  0.68058867  0.05463625     0.07500
N187        N  0.77422182  0.60396475  0.44089080    -0.25500
N188        N  0.87089870  0.65956634  0.01938990    -0.25100
N189        N  0.72578410  0.50968870  0.01196851     0.02000
C190        C  0.86785837  0.58014104  0.41121201     0.43400
C191        C  0.83553735  0.54495639  0.07477099    -0.06300
N192        N  0.80148803  0.65988465  0.02078749    -0.25100
H193        H  0.91372598  0.67852447  0.05210634     0.07500
N194        N  0.83843325  0.55308607  0.42459606    -0.46300
H195        H  0.82389131  0.51564961  0.07687347     0.07500
C196        C  0.72566297  0.57557320  0.09531566     0.43200
C197        C  0.80919681  0.48910748  0.47693576    -0.05800
Co198      Co  0.77335124  0.53537223  0.03625940     0.73800
N199        N  0.86927577  0.60642825  0.08062873    -0.46000
C200        C  0.72452277  0.57937064  0.41213527     0.43500
N201        N  0.69258730  0.48642348  0.02173343    -0.46000
Co202      Co  0.82163603  0.62966005  0.04285598     0.73900
C203        C  0.78579515  0.67823723  0.03161352    -0.06300
C204        C  0.87130751  0.61485376  0.42161912    -0.05900
N205        N  0.72800194  0.51033280  0.48612705    -0.25400
N206        N  0.90516353  0.68026961  0.47882610    -0.46200
H207        H  0.76410542  0.64198232  0.41653117     0.07500
C208        C  0.72448935  0.54566615  0.07905699    -0.06300
Cl209      Cl  0.79861300  0.58628323  0.00141847    -0.49300
C210        C  0.86800123  0.57453710  0.08809670     0.43200
H211        H  0.68716407  0.48429412  0.45239187     0.07400
N212        N  0.75546441  0.60716918  0.08598641    -0.46000
C213        C  0.66492267  0.19434825  0.99621444     0.43100
N214        N  0.71963571  0.21436139  0.01088344     0.02000
C215        C  0.86274734  0.25045230  0.42425935    -0.05900
H216        H  0.75363597  0.11199664  0.42092571     0.07500
C217        C  0.77754784  0.10457799  0.03027489    -0.06300
Co218      Co  0.76713992  0.22916991  0.46517694     0.74200
N219        N  0.76510294  0.16168873  0.44386961    -0.25400
Co220      Co  0.81507028  0.18368125  0.46772351     0.74100
C221        C  0.76935700  0.07963044  0.50760337     0.43200
N222        N  0.76216316  0.16876620  0.06283812     0.01600
N223        N  0.79454018  0.13591486  0.49345303     0.01700
N224        N  0.82853704  0.27758861  0.42497056    -0.46300
H225        H  0.67857191  0.19183470  0.45285418     0.07500
N226        N  0.74759401  0.18003233  0.44405875     0.02000
N227        N  0.86387673  0.20707930  0.49266805     0.01700
C228        C  0.92118589  0.23493324  0.00340268     0.43300
N229        N  0.74496946  0.18718040  0.05926279    -0.24900
C230        C  0.80079706  0.31249927  0.47685182    -0.05800
N231        N  0.68633333  0.20396796  0.02036815    -0.46000
N232        N  0.89772072  0.22241735  0.48225291    -0.46200
C233        C  0.81218828  0.33854101  0.99797786     0.43100
N234        N  0.81549268  0.24923583  0.44293463     0.02000
N235        N  0.81409844  0.25614730  0.06025787    -0.24900
N236        N  0.71857774  0.20840733  0.48721911    -0.25400
N237        N  0.83247754  0.23888945  0.06340021     0.01600
H238        H  0.82040212  0.30612789  0.07828550     0.07500
H239        H  0.90554380  0.23099209  0.05240054     0.07500
N240        N  0.83447473  0.23237776  0.44299071    -0.25500
N241        N  0.79358420  0.13875738  0.01943083    -0.25100
N242        N  0.78965304  0.28282963  0.01128271     0.02000
C243        C  0.71395731  0.13433980  0.41618086     0.43400
C244        C  0.71318861  0.17029071  0.07352509    -0.06300
N245        N  0.86338868  0.20890613  0.01910204    -0.25100
H246        H  0.77377952  0.09771714  0.05340407     0.07500
N247        N  0.71764483  0.16500397  0.42796867    -0.46300
H248        H  0.69395464  0.17982771  0.07518971     0.07500
C249        C  0.86101344  0.28745278  0.08972213     0.43200
C250        C  0.68524285  0.19495484  0.47603402    -0.05800
Co251      Co  0.76685521  0.23533150  0.03579766     0.73800
N252        N  0.74355101  0.13971724  0.08022919    -0.46000
C253        C  0.85851421  0.28056731  0.41258609     0.43500
N254        N  0.80191834  0.31620537  0.02155235    -0.46000
Co255      Co  0.81350098  0.18835581  0.04190459     0.73900
C256        C  0.89781237  0.22568612  0.02946210    -0.06300
C257        C  0.74597244  0.13210226  0.42630709    -0.05900
N258        N  0.78693106  0.27841299  0.48726742    -0.25400
N259        N  0.77959506  0.10174331  0.48366942    -0.46200
H260        H  0.88257366  0.24261075  0.41857498     0.07500
C261        C  0.83008347  0.28702142  0.07595847    -0.06300
Cl262      Cl  0.79184743  0.21024392  0.00073176    -0.49300
C263        C  0.71177324  0.13857955  0.08693002     0.43200
H264        H  0.80374076  0.32024981  0.45389592     0.07400
N265        N  0.86066851  0.25640933  0.08165261    -0.46000
C266        C  0.34779379  0.81348658  0.00254745     0.43100
N267        N  0.29189317  0.79418299  0.01339601     0.02000
C268        C  0.14338927  0.74799302  0.42007750    -0.05900
H269        H  0.25025762  0.88826348  0.41730676     0.07500
C270        C  0.22807100  0.89619201  0.03055790    -0.06300
Co271      Co  0.24080438  0.77179635  0.45978818     0.74200
N272        N  0.24044280  0.83845028  0.43915679    -0.25400
Co273      Co  0.19094292  0.81591457  0.46271177     0.74100
C274        C  0.23636207  0.92011445  0.50207226     0.43200
N275        N  0.24334187  0.83277504  0.06433070     0.01600
N276        N  0.21092160  0.86378455  0.48826461     0.01700
N277        N  0.17880330  0.72220559  0.42051730    -0.46300
H278        H  0.33104649  0.80370327  0.44970465     0.07500
N279        N  0.25897478  0.82110279  0.43918590     0.02000
N280        N  0.14269351  0.79231888  0.48749979     0.01700
C281        C  0.08696450  0.76358234  0.00075676     0.43300
N282        N  0.26205294  0.81592680  0.06102418    -0.24900
C283        C  0.21097195  0.68933735  0.47102572    -0.05800
N284        N  0.32436741  0.80584494  0.02493259    -0.46000
N285        N  0.10899545  0.77709777  0.47684490    -0.46200
C286        C  0.20332911  0.66724863  0.99762264     0.43100
N287        N  0.19197359  0.75104051  0.43791321     0.02000
N288        N  0.19599039  0.74538858  0.06005451    -0.24900
N289        N  0.28960098  0.79258058  0.48203038    -0.25400
N290        N  0.17577761  0.76065532  0.06339017     0.01600
H291        H  0.19565435  0.69890215  0.07948520     0.07500
H292        H  0.10054095  0.76575579  0.05006642     0.07500
N293        N  0.17221779  0.76710265  0.43819385    -0.25500
N294        N  0.21221048  0.86186618  0.01976888    -0.25100
N295        N  0.22491462  0.72241415  0.01160626     0.02000
C296        C  0.29140340  0.86800585  0.41250513     0.43400
C297        C  0.29278985  0.83297632  0.07652805    -0.06300
N298        N  0.14391518  0.78959602  0.01787952    -0.25100
H299        H  0.23292045  0.90357565  0.05357688     0.07500
N300        N  0.28919460  0.83762348  0.42359953    -0.46300
H301        H  0.31274917  0.82442729  0.07878387     0.07500
C302        C  0.15265508  0.71379279  0.09237683     0.43200
C303        C  0.32344675  0.80375862  0.47239515    -0.05800
Co304      Co  0.24381238  0.76929117  0.03667211     0.73800
N305        N  0.25989335  0.86111345  0.08265780    -0.46000
C306        C  0.14815120  0.71817440  0.40849907     0.43500
N307        N  0.21287332  0.68885504  0.02156385    -0.46000
Co308      Co  0.19303090  0.81160140  0.04200130     0.73900
C309        C  0.10917122  0.77185172  0.02737125    -0.06300
C310        C  0.25871969  0.86863231  0.42221577    -0.05900
N311        N  0.22241264  0.72289232  0.48157329    -0.25400
N312        N  0.22540362  0.89788035  0.47826066    -0.46200
H313        H  0.12272534  0.75487490  0.41480357     0.07500
C314        C  0.18319845  0.71559210  0.07683311    -0.06300
Cl315      Cl  0.21808835  0.79267050  0.00129607    -0.49300
C316        C  0.29177682  0.86305833  0.09033195     0.43200
H317        H  0.20924718  0.68195054  0.44806068     0.07400
N318        N  0.14938965  0.74268356  0.08314679    -0.46000
C319        C  0.57311646  0.85507579  0.41245246     0.43100
N320        N  0.59589355  0.83048875  0.44032941     0.02000
C321        C  0.49633764  0.67850764  0.03401956    -0.05900
H322        H  0.48959412  0.79533148  0.05956137     0.07500
C323        C  0.61672294  0.86200288  0.08304593    -0.06300
Co324      Co  0.53556390  0.76192734  0.46697335     0.74200
N325        N  0.51174159  0.77866677  0.02448318    -0.25400
Co326      Co  0.54376713  0.76201763  0.04515861     0.74100
C327        C  0.58194703  0.85664259  0.09486492     0.43200
N328        N  0.65963160  0.86313397  0.01431737     0.01600
N329        N  0.57134574  0.81163606  0.06669760     0.01700
N330        N  0.48853058  0.68060497  0.48031524    -0.46300
H331        H  0.51447971  0.81141150  0.42429767     0.07500
N332        N  0.50856770  0.78062297  0.49286705     0.02000
N333        N  0.57638616  0.74604154  0.06533002     0.01700
C334        C  0.59222314  0.71616012  0.09357048     0.43300
N335        N  0.65772611  0.86232891  0.48467438    -0.24900
C336        C  0.54906883  0.71377608  0.42532498    -0.05800
N337        N  0.60498078  0.85771567  0.42125571    -0.46000
N338        N  0.56350622  0.71671839  0.08206895    -0.46200
C339        C  0.57999143  0.71557433  0.41064783     0.43100
N340        N  0.51156040  0.71366253  0.49060147     0.02000
N341        N  0.66098214  0.79455972  0.48262376    -0.24900
N342        N  0.56016834  0.81018180  0.44357403    -0.25400
N343        N  0.66460555  0.79588136  0.01361444     0.01600
H344        H  0.68335482  0.77692190  0.44813423     0.07500
H345        H  0.65361787  0.75904895  0.08748683     0.07500
N346        N  0.51625305  0.71244625  0.02324601    -0.25500
N347        N  0.60716589  0.83269973  0.06552113    -0.25100
N348        N  0.59917732  0.76271952  0.43841264     0.02000
C349        C  0.47459892  0.79817267  0.01133406     0.43400
C350        C  0.67515745  0.89706082  0.47486719    -0.06300
N351        N  0.61234183  0.76584897  0.06483993    -0.25100
H352        H  0.64433082  0.88395933  0.08717190     0.07500
N353        N  0.48590215  0.79136865  0.48386419    -0.46300
H354        H  0.67736814  0.90540869  0.45209653     0.07500
C355        C  0.69571565  0.77119700  0.99933414     0.43200
C356        C  0.54366504  0.82365165  0.42712078    -0.05800
Co357      Co  0.62951653  0.81316974  0.46088186     0.73800
N358        N  0.67732479  0.89738787  0.02420866    -0.52300
C359        C  0.47813964  0.65553110  0.00841999     0.43500
N360        N  0.61048582  0.74689157  0.41915729    -0.46000
Co361      Co  0.63714569  0.81508964  0.04002686     0.73900
C362        C  0.62519227  0.74918519  0.08260121    -0.06300
C363        C  0.49185103  0.79156983  0.03632321    -0.05900
N364        N  0.56339540  0.74387573  0.44182592    -0.25400
N365        N  0.55553331  0.82467667  0.08385656    -0.46200
H366        H  0.49195661  0.67141123  0.05712232     0.07500
C367        C  0.68031086  0.78027374  0.47133818    -0.06300
Cl368      Cl  0.58633237  0.78693706  0.00437717    -0.49300
C369        C  0.68903879  0.91965983  0.50132861     0.43200
H370        H  0.52030438  0.69389298  0.42299675     0.07400
N371        N  0.68483649  0.78221736  0.02322267    -0.46000
C372        C  0.18597440  0.52404873  0.99678889     0.43100
N373        N  0.20642312  0.48969043  0.01145670     0.02000
C374        C  0.25291580  0.38573599  0.42218683    -0.05900
H375        H  0.11529038  0.35324340  0.41883922     0.07500
C376        C  0.10476703  0.32240054  0.02941746    -0.06300
Co377      Co  0.23139392  0.46028426  0.46246243     0.74200
N378        N  0.16494180  0.39301336  0.44116501    -0.25400
Co379      Co  0.18611884  0.36580557  0.46627514     0.74100
C380        C  0.08102944  0.30982363  0.50517762     0.43200
N381        N  0.16571422  0.40149599  0.06380374     0.01600
N382        N  0.13763192  0.33877388  0.49162038     0.01700
N383        N  0.28022948  0.44739194  0.42356089    -0.46300
H384        H  0.19687431  0.51493639  0.44856321     0.07500
N385        N  0.18325226  0.42917127  0.44062373     0.02000
N386        N  0.20853765  0.34073324  0.49258109     0.01700
C387        C  0.23797763  0.31501030  0.00545050     0.43300
N388        N  0.18225687  0.43726966  0.06006310    -0.24900
C389        C  0.31365401  0.51246912  0.47550694    -0.05800
N390        N  0.19492485  0.51163201  0.02087728    -0.46000
N391        N  0.22312502  0.32125179  0.48312279    -0.46200
C392        C  0.33257495  0.53114302  0.00197267     0.43100
N393        N  0.25234394  0.43178233  0.44181715     0.02000
N394        N  0.25242979  0.44266216  0.06182278    -0.24900
N395        N  0.20973233  0.48839395  0.48313974    -0.25400
N396        N  0.23819396  0.40695791  0.06448168     0.01600
H397        H  0.29848074  0.48952466  0.08103427     0.07500
H398        H  0.23144200  0.32499226  0.05422169     0.07500
N399        N  0.23537906  0.39561064  0.44170632    -0.25500
N400        N  0.13909467  0.34075326  0.01913558    -0.25100
N401        N  0.27712156  0.49462347  0.01337745     0.02000
C402        C  0.13790029  0.41548568  0.41243645     0.43400
C403        C  0.16557567  0.45105476  0.07561039    -0.06300
N404        N  0.21048764  0.34515087  0.02013078    -0.25100
H405        H  0.09705172  0.32028438  0.05231176     0.07500
N406        N  0.16831482  0.44341577  0.42387079    -0.46300
H407        H  0.17466036  0.47989291  0.07780683     0.07500
C408        C  0.28686955  0.43147278  0.09146908     0.43200
C409        C  0.19735575  0.50918141  0.47170496    -0.05800
Co410      Co  0.22954006  0.46628628  0.03685022     0.73800
N411        N  0.13777688  0.38971307  0.08246125    -0.46000
C412        C  0.28279355  0.42062635  0.41004735     0.43500
N413        N  0.30941126  0.51731424  0.02475934    -0.46000
Co414      Co  0.18793546  0.37241323  0.04253981     0.73900
C415        C  0.22709042  0.32780750  0.03113862    -0.06300
C416        C  0.13549173  0.38149055  0.42347239    -0.05900
N417        N  0.27947609  0.49117379  0.48515835    -0.25400
N418        N  0.10353825  0.32042265  0.48150149    -0.46200
H419        H  0.24434385  0.35790899  0.41576942     0.07500
C420        C  0.28241361  0.46012713  0.07821619    -0.06300
Cl421      Cl  0.20840892  0.41649958  0.00140928    -0.49300
C422        C  0.13584953  0.41982796  0.09015199     0.43200
H423        H  0.32213681  0.51738482  0.45272885     0.07400
N424        N  0.25793077  0.39883132  0.08251365    -0.46000
C425        C  0.42953619  0.14944033  0.40752110     0.43100
N426        N  0.40735499  0.17173431  0.43829246     0.02000
C427        C  0.51816353  0.31533505  0.02725161    -0.05900
H428        H  0.52091181  0.19647978  0.04621327     0.07500
C429        C  0.38983322  0.13759699  0.08073999    -0.06300
Co430      Co  0.46847511  0.23893072  0.46585895     0.74200
N431        N  0.49361060  0.21235793  0.01453775    -0.25400
Co432      Co  0.46581586  0.23201498  0.03823658     0.74100
C433        C  0.42412121  0.14111213  0.09205490     0.43200
N434        N  0.34487399  0.13688542  0.01123634     0.01600
N435        N  0.43633742  0.18257566  0.05950086     0.01700
N436        N  0.51539744  0.31965279  0.48075928    -0.46300
H437        H  0.48837913  0.19303534  0.41873795     0.07500
N438        N  0.49557601  0.21788376  0.48886284     0.02000
N439        N  0.43728526  0.25135572  0.06109267     0.01700
C440        C  0.42608556  0.28289195  0.09152550     0.43300
N441        N  0.34763695  0.13820009  0.48439902    -0.24900
C442        C  0.45399216  0.28882779  0.42741265    -0.05800
N443        N  0.39776235  0.14542778  0.41820392    -0.46000
N444        N  0.45291051  0.27995589  0.07876713    -0.46200
C445        C  0.42276344  0.28730440  0.41340094     0.43100
N446        N  0.49373284  0.28621367  0.49091012     0.02000
N447        N  0.34512814  0.20667749  0.48623769    -0.24900
N448        N  0.44314939  0.19229014  0.44067659    -0.25400
N449        N  0.34456896  0.20667593  0.01256149     0.01600
H450        H  0.32397371  0.22903251  0.45416156     0.07500
H451        H  0.36368304  0.24432607  0.08632572     0.07500
N452        N  0.49513539  0.28168328  0.01684795    -0.25500
N453        N  0.40037747  0.16468300  0.06064774    -0.25100
N454        N  0.40426287  0.23954209  0.44035732     0.02000
C455        C  0.52848976  0.19210814  0.99650209     0.43400
C456        C  0.33004897  0.10395967  0.47351018    -0.06300
N457        N  0.40124176  0.23426442  0.06135377    -0.25100
H458        H  0.36207347  0.11977022  0.08801958     0.07500
N459        N  0.51577536  0.20551543  0.47742050    -0.46300
H460        H  0.32683317  0.09670646  0.45044253     0.07500
C461        C  0.31500128  0.23365216  0.00040566     0.43200
C462        C  0.45928450  0.18032334  0.42234569    -0.05800
Co463      Co  0.37489403  0.18834386  0.46177952     0.73800
N464        N  0.32701112  0.10279346  0.02148223    -0.46000
C465        C  0.53232381  0.33845874  0.00104493     0.43500
N466        N  0.39250929  0.25562018  0.42167579    -0.46000
Co467      Co  0.37159311  0.18505466  0.03687257     0.73900
C468        C  0.39136151  0.25238072  0.08024655    -0.06300
C469        C  0.51460320  0.19903906  0.02357271    -0.05900
N470        N  0.44007143  0.25837280  0.44336591    -0.25400
N471        N  0.45124734  0.16943089  0.07751993    -0.46200
H472        H  0.52559487  0.32216328  0.05011454     0.07500
C473        C  0.32680449  0.22300950  0.47682210    -0.06300
Cl474      Cl  0.41975765  0.21018366  0.99927524    -0.49300
C475        C  0.31795101  0.08008713  0.49926940     0.43200
H476        H  0.48274035  0.30838864  0.42448023     0.07400
N477        N  0.32632498  0.22182016  0.02355840    -0.46000
C478        C  0.29569451  0.25484522  0.00251610    -0.04700
C479        C  0.25716416  0.23434593  0.51703545    -0.01800
C480        C  0.23723904  0.25295615  0.51722826     0.03200
C481        C  0.25807801  0.29453738  0.00502577    -0.04700
C482        C  0.29428534  0.31154140  0.99447101    -0.01800
C483        C  0.31259904  0.29146300  0.99233772     0.03200
C484        C  0.24048465  0.19707793  0.52802438     0.37800
C485        C  0.31343729  0.35036463  0.98757847     0.37800
C486        C  0.34917805  0.30877103  0.98020444     0.36200
C487        C  0.19960881  0.23407240  0.52711103     0.36200
N488        N  0.37827718  0.32240527  0.97036408    -0.38600
N489        N  0.16950959  0.21882558  0.53484790    -0.38600
N490        N  0.32882186  0.38152146  0.98272116    -0.38000
N491        N  0.22736939  0.16742741  0.53696174    -0.38000
C492        C  0.44159787  0.62243024  0.00876898    -0.04700
C493        C  0.43530166  0.59336011  0.48809182    -0.01800
C494        C  0.40073958  0.56132394  0.48822083     0.03200
C495        C  0.37007393  0.56219180  0.00455717    -0.04700
C496        C  0.37727920  0.59242131  0.02245892    -0.01800
C497        C  0.41283818  0.62265326  0.02426427     0.03200
C498        C  0.46486900  0.59470136  0.47117288     0.37800
C499        C  0.34794075  0.59348598  0.03802457     0.37800
C500        C  0.41895264  0.65486550  0.04049075     0.36200
C501        C  0.39532783  0.52874381  0.47307813     0.36200
N502        N  0.42364641  0.68049774  0.05335551    -0.38600
N503        N  0.39097148  0.50267577  0.46112408    -0.38600
N504        N  0.32476221  0.59451339  0.05054672    -0.38000
N505        N  0.48827360  0.59580679  0.45737732    -0.38000
C506        C  0.25738213  0.96106319  0.50106720    -0.04700
C507        C  0.24130673  0.98057555  0.48941759    -0.01800
C508        C  0.26111184  0.01940168  0.48876736     0.03200
C509        C  0.29724699  0.03913259  0.49969693    -0.04700
C510        C  0.31027088  0.02137964  0.01572885    -0.01800
C511        C  0.29101258  0.98264713  0.01837759     0.03200
C512        C  0.20387470  0.96067263  0.47898852     0.37800
C513        C  0.34665409  0.04283808  0.02809556     0.37800
C514        C  0.30649886  0.96506609  0.03580263     0.36200
C515        C  0.24409720  0.03910518  0.47713961     0.36200
N516        N  0.31886921  0.95120488  0.04990815    -0.38600
N517        N  0.23059264  0.05488143  0.46780469    -0.38600
N518        N  0.37599774  0.06022235  0.03731225    -0.38000
N519        N  0.17394570  0.94471904  0.47079554    -0.38000
C520        C  0.19862047  0.63060933  0.99792251    -0.04700
C521        C  0.23093497  0.62716134  0.49226498    -0.01800
C522        C  0.22711688  0.59223347  0.49208725     0.03200
C523        C  0.18993016  0.56048243  0.99655755    -0.04700
C524        C  0.15898939  0.56433780  0.99894634    -0.01800
C525        C  0.16336621  0.59956988  0.99967046     0.03200
C526        C  0.26651523  0.65946252  0.48727594     0.37800
C527        C  0.12273094  0.53222843  0.00011445     0.37800
C528        C  0.13175161  0.60397945  0.00232366     0.36200
C529        C  0.25897018  0.58856740  0.48740425     0.36200
N530        N  0.10655851  0.60752002  0.00452900    -0.38600
N531        N  0.28423993  0.58548226  0.48366593    -0.38600
N532        N  0.09359481  0.50685599  0.00082981    -0.38000
N533        N  0.29488610  0.68518506  0.48334600    -0.38000
C534        C  0.38172380  0.81210194  0.00618668    -0.04700
C535        C  0.38391230  0.78992016  0.02869405    -0.01800
C536        C  0.41561291  0.78782120  0.03199688     0.03200
C537        C  0.44459481  0.80601798  0.01180544    -0.04700
C538        C  0.44104571  0.82906033  0.48674150    -0.01800
C539        C  0.40917530  0.83107055  0.48373125     0.03200
C540        C  0.35267663  0.76640540  0.04716345     0.37800
C541        C  0.47217264  0.85108541  0.46777930     0.37800
C542        C  0.40749257  0.85432198  0.46110076     0.36200
C543        C  0.41709254  0.76540937  0.05562960     0.36200
N544        N  0.40681471  0.87271969  0.44255990    -0.38600
N545        N  0.41774627  0.74780904  0.07489513    -0.38600
N546        N  0.49700688  0.86863899  0.45272751    -0.38000
N547        N  0.32789912  0.74737194  0.06178959    -0.38000
C548        C  0.74924784  0.03859016  0.50668641    -0.04700
C549        C  0.71817323  0.01825852  0.02448912    -0.01800
C550        C  0.69826540  0.97946340  0.02298444     0.03200
C551        C  0.70994455  0.96052471  0.50334707    -0.04700
C552        C  0.74050023  0.98147048  0.48503285    -0.01800
C553        C  0.75978552  0.02020949  0.48648742     0.03200
C554        C  0.70900343  0.03610332  0.04736163     0.37800
C555        C  0.75325521  0.96320292  0.46550992     0.37800
C556        C  0.79150318  0.04106710  0.46788842     0.36200
C557        C  0.66783311  0.95900285  0.04289785     0.36200
N558        N  0.81683439  0.05769636  0.45308820    -0.38600
N559        N  0.64334028  0.94319548  0.05865702    -0.38600
N560        N  0.76361321  0.94869642  0.45004493    -0.38000
N561        N  0.70153045  0.04974053  0.06600878    -0.38000
C562        C  0.96228567  0.25485727  0.00216077    -0.04700
C563        C  0.98044061  0.24453464  0.48425693    -0.01800
C564        C  0.01918194  0.26249456  0.48439359     0.03200
C565        C  0.04045761  0.29072582  0.00213738    -0.04700
C566        C  0.02218712  0.30464579  0.01911412    -0.01800
C567        C  0.98352127  0.28678406  0.01924345     0.03200
C568        C  0.95989627  0.21456001  0.46391144     0.37800
C569        C  0.04308027  0.33831927  0.03573490     0.37800
C570        C  0.96576947  0.30237358  0.03621643     0.36200
C571        C  0.03747602  0.24976336  0.46492674     0.36200
N572        N  0.95181750  0.31499680  0.04979103    -0.38600
N573        N  0.05204809  0.23950394  0.44946225    -0.38600
N574        N  0.05957614  0.36520955  0.04897571    -0.38000
N575        N  0.94360308  0.19076328  0.44754576    -0.38000
C576        C  0.62951342  0.19267224  0.99546984    -0.04700
C577        C  0.59953452  0.16525567  0.01126503    -0.01800
C578        C  0.56599944  0.16445549  0.01104592     0.03200
C579        C  0.56226265  0.19057475  0.99444417    -0.04700
C580        C  0.58857071  0.21027604  0.47673150    -0.01800
C581        C  0.62192228  0.21107831  0.47830002     0.03200
C582        C  0.60307493  0.13776482  0.02759869     0.37800
C583        C  0.58348371  0.23100140  0.45352484     0.37800
C584        C  0.65141065  0.23631085  0.45911788     0.36200
C585        C  0.53520127  0.13652018  0.02759268     0.36200
N586        N  0.67464723  0.25664439  0.44378627    -0.38600
N587        N  0.51058028  0.11438186  0.04080436    -0.38600
N588        N  0.57965755  0.24726829  0.43472871    -0.38000
N589        N  0.60557899  0.11565180  0.04067130    -0.38000
C590        C  0.96880946  0.70965650  0.00108982    -0.04700
C591        C  0.98995355  0.74592573  0.99040189    -0.01800
C592        C  0.02854199  0.76325224  0.98936015     0.03200
C593        C  0.04629206  0.74438884  0.99885984    -0.04700
C594        C  0.02460044  0.70791292  0.50616218    -0.01800
C595        C  0.98616224  0.69075633  0.50789121     0.03200
C596        C  0.97208163  0.76593789  0.98151863     0.37800
C597        C  0.04227892  0.68654168  0.51035429     0.37800
C598        C  0.96473899  0.65274559  0.51708409     0.36200
C599        C  0.05003025  0.80070033  0.97889401     0.36200
N600        N  0.94753978  0.62249362  0.52457865    -0.38600
N601        N  0.06720130  0.83052694  0.97041248    -0.38600
N602        N  0.05642253  0.66941606  0.51301429    -0.38000
N603        N  0.95783877  0.78196155  0.97451754    -0.38000
C604        C  0.71664901  0.75128011  0.00053497    -0.04700
C605        C  0.74752526  0.76393043  0.01914517    -0.01800
C606        C  0.76672213  0.74462674  0.02110931     0.03200
C607        C  0.75534344  0.71232986  0.00451885    -0.04700
C608        C  0.72745887  0.70245439  0.47901924    -0.01800
C609        C  0.70832838  0.72186181  0.47751852     0.03200
C610        C  0.76060859  0.79781604  0.03542410     0.37800
C611        C  0.71719629  0.67193520  0.45914493     0.37800
C612        C  0.67954496  0.71086486  0.45582912     0.36200
C613        C  0.79896653  0.75880071  0.03956540     0.36200
N614        N  0.65688675  0.70199376  0.43822109    -0.38600
N615        N  0.82470649  0.77021852  0.05430009    -0.38600
N616        N  0.70829791  0.64759633  0.44314261    -0.38000
N617        N  0.77108913  0.82493980  0.04828853    -0.38000
C618        C  0.81392366  0.44032476  0.99727354    -0.04700
C619        C  0.78426483  0.40904905  0.01019142    -0.01800
C620        C  0.78409372  0.37585949  0.01086425     0.03200
C621        C  0.81336847  0.37375131  0.99827421    -0.04700
C622        C  0.84545572  0.40329205  0.50168211    -0.01800
C623        C  0.84757271  0.43757110  0.50245707     0.03200
C624        C  0.75287273  0.41030815  0.02141097     0.37800
C625        C  0.87841217  0.40125733  0.49881465     0.37800
C626        C  0.88294166  0.47087759  0.50161839     0.36200
C627        C  0.75290464  0.34356633  0.02342629     0.36200
N628        N  0.91154484  0.49704563  0.50113289    -0.38600
N629        N  0.72810048  0.31786023  0.03345579    -0.38600
N630        N  0.90475444  0.39976914  0.49636771    -0.38000
N631        N  0.72775396  0.41116726  0.03021221    -0.38000
C632        C  0.63447670  0.44077791  0.99762790    -0.04700
C633        C  0.62892196  0.40907058  0.48556376    -0.01800
C634        C  0.59452103  0.37704338  0.48631080     0.03200
C635        C  0.56660879  0.37441388  0.99906545    -0.04700
C636        C  0.57437047  0.40227541  0.01985568    -0.01800
C637        C  0.60817033  0.43542352  0.01905749     0.03200
C638        C  0.65821087  0.40902510  0.46909344     0.37800
C639        C  0.54731109  0.39732429  0.04166477     0.37800
C640        C  0.61579735  0.46411289  0.04025260     0.36200
C641        C  0.58941845  0.34470703  0.47087299     0.36200
N642        N  0.62194285  0.48697458  0.05717208    -0.38600
N643        N  0.58546717  0.31901181  0.45856228    -0.38600
N644        N  0.52577262  0.39340462  0.05908876    -0.38000
N645        N  0.68130696  0.40874758  0.45581858    -0.38000
C646        C  0.46432771  0.36626791  0.15827585    -0.04700
C647        C  0.44306260  0.36701703  0.13445326    -0.01800
C648        C  0.42776406  0.33810455  0.11371180     0.03200
C649        C  0.43378793  0.30841597  0.11650176    -0.04700
C650        C  0.45351499  0.30684079  0.14102493    -0.01800
C651        C  0.46886562  0.33565119  0.16173517     0.03200
C652        C  0.43778218  0.39812247  0.13074716     0.37800
C653        C  0.45685404  0.27471218  0.14551457     0.37800
C654        C  0.48793586  0.33288838  0.18725228     0.36200
C655        C  0.40638243  0.33916196  0.08920094     0.36200
N656        N  0.50300973  0.33055182  0.20764797    -0.38600
N657        N  0.38906167  0.33976393  0.06973997    -0.38600
N658        N  0.45902905  0.24883652  0.14932227    -0.38000
N659        N  0.43363911  0.42296426  0.12773274    -0.38000
C660        C  0.45603153  0.36389528  0.34296363    -0.04700
C661        C  0.43413618  0.32604237  0.33681109    -0.01800
C662        C  0.41950430  0.30041129  0.36005414     0.03200
C663        C  0.42668218  0.31269580  0.38947470    -0.04700
C664        C  0.44630340  0.35071011  0.39546725    -0.01800
C665        C  0.46063799  0.37623580  0.37227280     0.03200
C666        C  0.42732042  0.31348352  0.30651487     0.37800
C667        C  0.45233477  0.36351591  0.42571365     0.37800
C668        C  0.47822020  0.41515180  0.37850999     0.36200
C669        C  0.39889202  0.26146832  0.35366596     0.36200
N670        N  0.49129197  0.44609298  0.38359721    -0.38600
N671        N  0.38241929  0.23041862  0.34845827    -0.38600
N672        N  0.45723493  0.37359762  0.44985559    -0.38000
N673        N  0.42191192  0.30364912  0.28230597    -0.38000
C674        C  0.64560266  0.54625817  0.16415258    -0.04700
C675        C  0.64916561  0.57118474  0.14158093    -0.01800
C676        C  0.67738499  0.58334273  0.12044875     0.03200
C677        C  0.70194600  0.57026276  0.12116620    -0.04700
C678        C  0.69929588  0.54642135  0.14420078    -0.01800
C679        C  0.67119748  0.53430054  0.16543567     0.03200
C680        C  0.62288662  0.58331186  0.13907986     0.37800
C681        C  0.72624195  0.53505810  0.14649683     0.37800
C682        C  0.66940707  0.51031506  0.18904303     0.36200
C683        C  0.68048619  0.60851733  0.09736531     0.36200
N684        N  0.66805137  0.49119351  0.20786536    -0.38600
N685        N  0.68308723  0.62876993  0.07906524    -0.38600
N686        N  0.74789789  0.52622560  0.14837136    -0.38000
N687        N  0.60209105  0.59320490  0.13697905    -0.38000
C688        C  0.69581612  0.57134142  0.38976048    -0.04700
C689        C  0.65980888  0.54234962  0.39520670    -0.01800
C690        C  0.63391724  0.52782161  0.37222447     0.03200
C691        C  0.64285135  0.54364539  0.34398198    -0.04700
C692        C  0.67835826  0.57397081  0.33886483    -0.01800
C693        C  0.70482080  0.58754520  0.36158043     0.03200
C694        C  0.64888126  0.52837185  0.42491669     0.37800
C695        C  0.68820761  0.59052279  0.30984995     0.37800
C696        C  0.74151687  0.61735542  0.35555602     0.36200
C697        C  0.59795772  0.49669241  0.37783815     0.36200
N698        N  0.77074318  0.64120907  0.35066811    -0.38600
N699        N  0.56954857  0.47145647  0.38252467    -0.38600
N700        N  0.69609602  0.60378839  0.28673518    -0.38000
N701        N  0.64003897  0.51764566  0.44866964    -0.38000
C702        C  0.55469345  0.63507440  0.16115465    -0.04700
C703        C  0.58099810  0.67188679  0.16795205    -0.01800
C704        C  0.59720514  0.69824853  0.14531242     0.03200
C705        C  0.58644539  0.68812190  0.11584569    -0.04700
C706        C  0.56188227  0.65087431  0.10896211    -0.01800
C707        C  0.54655289  0.62436830  0.13147967     0.03200
C708        C  0.59060387  0.68288672  0.19841422     0.37800
C709        C  0.55211904  0.63992389  0.07848342     0.37800
C710        C  0.52427981  0.58588474  0.12393093     0.36200
C711        C  0.62370153  0.73597921  0.15252532     0.36200
N712        N  0.50740958  0.55519590  0.11759928    -0.38600
N713        N  0.64506919  0.76598967  0.15841260    -0.38600
N714        N  0.54438410  0.63143925  0.05415092    -0.38000
N715        N  0.59812784  0.69151938  0.22274415    -0.38000
C716        C  0.54612531  0.63285066  0.34494686    -0.04700
C717        C  0.55714010  0.66917142  0.33661827    -0.01800
C718        C  0.57226958  0.69758684  0.35769965     0.03200
C719        C  0.57616232  0.68970204  0.38721677    -0.04700
C720        C  0.56666537  0.65368202  0.39520162    -0.01800
C721        C  0.55205626  0.62539539  0.37405668     0.03200
C722        C  0.55272629  0.67719606  0.30634714     0.37800
C723        C  0.57121001  0.64565756  0.42545059     0.37800
C724        C  0.54258176  0.58847810  0.38237662     0.36200
C725        C  0.58273869  0.73472206  0.34925595     0.36200
N726        N  0.53507069  0.55906616  0.38909529    -0.38600
N727        N  0.59127092  0.76437591  0.34243043    -0.38600
N728        N  0.57498466  0.63943650  0.44959380    -0.38000
N729        N  0.54908244  0.68341909  0.28217603    -0.38000
C730        C  0.36861206  0.45902944  0.15958544    -0.04700
C731        C  0.33419528  0.42623901  0.16161571    -0.01800
C732        C  0.30785336  0.41626040  0.13898705     0.03200
C733        C  0.31596030  0.43823182  0.11352544    -0.04700
C734        C  0.35113419  0.47013660  0.11102178    -0.01800
C735        C  0.37629372  0.48144157  0.13457351     0.03200
C736        C  0.32469182  0.40379488  0.18794387     0.37800
C737        C  0.36239389  0.49101120  0.08379960     0.37800
C738        C  0.40967499  0.51677455  0.13325278     0.36200
C739        C  0.27185453  0.38426214  0.14275154     0.36200
N740        N  0.43561593  0.54553352  0.13236253    -0.38600
N741        N  0.24312317  0.35879698  0.14597114    -0.38600
N742        N  0.37172094  0.50774818  0.06216482    -0.38000
N743        N  0.31711271  0.38591295  0.20895452    -0.38000
C744        C  0.36464622  0.45130164  0.34117238    -0.04700
C745        C  0.34377130  0.46872685  0.34337749    -0.01800
C746        C  0.31582297  0.45725798  0.36474317     0.03200
C747        C  0.30846088  0.42847092  0.38477589    -0.04700
C748        C  0.32844604  0.41033751  0.38214665    -0.01800
C749        C  0.35662160  0.42192517  0.36092730     0.03200
C750        C  0.35016341  0.49800814  0.32318962     0.37800
C751        C  0.32068192  0.38010983  0.40173209     0.37800
C752        C  0.37805961  0.40404502  0.36065732     0.36200
C753        C  0.29358452  0.47439297  0.36514868     0.36200
N754        N  0.39452075  0.38907447  0.36079604    -0.38600
N755        N  0.27582216  0.48800511  0.36536839    -0.38600
N756        N  0.31443606  0.35570956  0.41702099    -0.38000
N757        N  0.35516322  0.52142639  0.30719308    -0.38000
C758        C  0.91396922  0.54223356  0.15838016    -0.04700
C759        C  0.90639320  0.52454553  0.13088536    -0.01800
C760        C  0.89569096  0.53815829  0.10686878     0.03200
C761        C  0.88991892  0.56820070  0.11057516    -0.04700
C762        C  0.89900894  0.58689170  0.13774488    -0.01800
C763        C  0.91121793  0.57412396  0.16146720     0.03200
C764        C  0.90951302  0.49219658  0.12717918     0.37800
C765        C  0.89418774  0.61817572  0.14188945     0.37800
C766        C  0.91884066  0.59270694  0.18963437     0.36200
C767        C  0.89093023  0.52117507  0.07816939     0.36200
N768        N  0.92480319  0.60756075  0.21208146    -0.38600
N769        N  0.88712310  0.50747426  0.05538430    -0.38600
N770        N  0.89037433  0.64316402  0.14521461    -0.38000
N771        N  0.91143424  0.46606486  0.12422457    -0.38000
C772        C  0.91046576  0.54363166  0.34137215    -0.04700
C773        C  0.90668275  0.52952886  0.37002225    -0.01800
C774        C  0.89551332  0.54381055  0.39313370     0.03200
C775        C  0.88714045  0.57178894  0.38784477    -0.04700
C776        C  0.89129945  0.58620323  0.35915486    -0.01800
C777        C  0.90339468  0.57249799  0.33609024     0.03200
C778        C  0.91515307  0.50088647  0.37592644     0.37800
C779        C  0.88091977  0.61332577  0.35284395     0.37800
C780        C  0.90708232  0.58708770  0.30657431     0.36200
C781        C  0.89271008  0.52964016  0.42262492     0.36200
N782        N  0.91001072  0.59868491  0.28301660    -0.38600
N783        N  0.89036457  0.51843203  0.44621205    -0.38600
N784        N  0.87242538  0.63478771  0.34766067    -0.38000
N785        N  0.92190201  0.47804681  0.38061502    -0.38000
C786        C  0.91172500  0.36565362  0.15908771    -0.04700
C787        C  0.88984863  0.32805608  0.16579914    -0.01800
C788        C  0.87636728  0.30185594  0.14300776     0.03200
C789        C  0.88294318  0.31330428  0.11337357    -0.04700
C790        C  0.90562083  0.35090540  0.10671709    -0.01800
C791        C  0.92117549  0.37684649  0.12960926     0.03200
C792        C  0.88145047  0.31639163  0.19624960     0.37800
C793        C  0.91315716  0.36284366  0.07628952     0.37800
C794        C  0.94799377  0.41470051  0.12294818     0.36200
C795        C  0.85577993  0.26318154  0.15011556     0.36200
N796        N  0.96990455  0.44473548  0.11767189    -0.38600
N797        N  0.84014230  0.23234275  0.15604822    -0.38600
N798        N  0.91914018  0.37239271  0.05202227    -0.38000
N799        N  0.87481066  0.30731683  0.22057800    -0.38000
C800        C  0.90778167  0.36330499  0.34554485    -0.04700
C801        C  0.87351431  0.33160698  0.34054283    -0.01800
C802        C  0.85841776  0.30340205  0.36182798     0.03200
C803        C  0.87757455  0.30654581  0.38817737    -0.04700
C804        C  0.91221127  0.33769335  0.39288907    -0.01800
C805        C  0.92737118  0.36593999  0.37161822     0.03200
C806        C  0.85464409  0.32713093  0.31285041     0.37800
C807        C  0.93173167  0.34107513  0.42004147     0.37800
C808        C  0.96304452  0.39797829  0.37679203     0.36200
C809        C  0.82334051  0.27067436  0.35640190     0.36200
N810        N  0.99155507  0.42343398  0.38092343    -0.38600
N811        N  0.79545241  0.24447396  0.35207796    -0.38600
N812        N  0.94716070  0.34359885  0.44174115    -0.38000
N813        N  0.83980196  0.32351154  0.29063883    -0.38000
C814        C  0.09144010  0.44961534  0.16251899    -0.04700
C815        C  0.09194700  0.46305406  0.13408268    -0.01800
C816        C  0.10213945  0.44949626  0.10982348     0.03200
C817        C  0.11396454  0.42387265  0.11389575    -0.04700
C818        C  0.11110618  0.40859446  0.14207440    -0.01800
C819        C  0.09934161  0.42106089  0.16623438     0.03200
C820        C  0.08117234  0.49028539  0.12967436     0.37800
C821        C  0.12169282  0.38128492  0.14656946     0.37800
C822        C  0.09659346  0.40529517  0.19513539     0.36200
C823        C  0.09994638  0.46161520  0.08042550     0.36200
N824        N  0.09431107  0.39247599  0.21810838    -0.38600
N825        N  0.09802225  0.47108015  0.05694096    -0.38600
N826        N  0.13007002  0.35943276  0.15019456    -0.38000
N827        N  0.07260747  0.51203383  0.12629442    -0.38000
C828        C  0.09145372  0.45065274  0.34518709    -0.04700
C829        C  0.09579286  0.46445070  0.37398448    -0.01800
C830        C  0.10761707  0.45006359  0.39662567     0.03200
C831        C  0.11615649  0.42239465  0.39053814    -0.04700
C832        C  0.11075663  0.40777076  0.36190869    -0.01800
C833        C  0.09803084  0.42156858  0.33937576     0.03200
C834        C  0.08736654  0.49294587  0.38049940     0.37800
C835        C  0.12049992  0.38029821  0.35510967     0.37800
C836        C  0.09319930  0.40678893  0.30986026     0.36200
C837        C  0.11096325  0.46379479  0.42639896     0.36200
N838        N  0.08931039  0.39489305  0.28635095    -0.38600
N839        N  0.11347412  0.47463166  0.45015298    -0.38600
N840        N  0.12842281  0.35850963  0.34960242    -0.38000
N841        N  0.08064127  0.51565877  0.38573716    -0.38000
C842        C  0.13374780  0.68858150  0.11762134    -0.04700
C843        C  0.15445231  0.68342372  0.13968384    -0.01800
C844        C  0.13706424  0.65559975  0.16113324     0.03200
C845        C  0.09883239  0.63173563  0.16032450    -0.04700
C846        C  0.07822638  0.63688074  0.13811662    -0.01800
C847        C  0.09547230  0.66610387  0.11779488     0.03200
C848        C  0.19376542  0.70767127  0.14112565     0.37800
C849        C  0.03935975  0.61113042  0.13504038     0.37800
C850        C  0.07362950  0.67302634  0.09713534     0.36200
C851        C  0.15860724  0.65263752  0.18465221     0.36200
N852        N  0.05579401  0.67885952  0.08131900    -0.38600
N853        N  0.17586075  0.65050827  0.20346837    -0.38600
N854        N  0.00841309  0.59058700  0.13233888    -0.38000
N855        N  0.22512276  0.72687576  0.14224692    -0.38000
C856        C  0.12849366  0.69107606  0.38481119    -0.04700
C857        C  0.14848928  0.68929329  0.36059925    -0.01800
C858        C  0.13188239  0.66014089  0.34031309     0.03200
C859        C  0.09510080  0.63240657  0.34402487    -0.04700
C860        C  0.07492325  0.63441128  0.36806310    -0.01800
C861        C  0.09157407  0.66373554  0.38831627     0.03200
C862        C  0.18625172  0.71786483  0.35625165     0.37800
C863        C  0.03734139  0.60555014  0.37266942     0.37800
C864        C  0.07122707  0.66484634  0.41351611     0.36200
C865        C  0.15241749  0.65948979  0.31505480     0.36200
N866        N  0.05504689  0.66572537  0.43365626    -0.38600
N867        N  0.16872369  0.65894599  0.29487605    -0.38600
N868        N  0.00739652  0.58252933  0.37638843    -0.38000
N869        N  0.21636706  0.74058776  0.35278425    -0.38000
C870        C  0.36841418  0.90726253  0.16076559    -0.04700
C871        C  0.38043758  0.91714587  0.13154354    -0.01800
C872        C  0.35484228  0.90508969  0.10836301     0.03200
C873        C  0.31700453  0.88433066  0.11440518    -0.04700
C874        C  0.30492795  0.87641492  0.14378196    -0.01800
C875        C  0.33060759  0.88763671  0.16688659     0.03200
C876        C  0.41907301  0.94045425  0.12541030     0.37800
C877        C  0.26616436  0.85458623  0.15010355     0.37800
C878        C  0.31802485  0.87777278  0.19690781     0.36200
C879        C  0.36746616  0.91308478  0.07812895     0.36200
N880        N  0.30756658  0.86940159  0.22073511    -0.38600
N881        N  0.37750127  0.91922286  0.05400736    -0.38600
N882        N  0.23524309  0.83710332  0.15508678    -0.38000
N883        N  0.44984237  0.95947260  0.12055170    -0.38000
C884        C  0.37300813  0.91002182  0.34625464    -0.04700
C885        C  0.33605176  0.89596517  0.33831459    -0.01800
C886        C  0.30904670  0.88524865  0.36015878     0.03200
C887        C  0.31904139  0.88959650  0.39005805    -0.04700
C888        C  0.35624940  0.90646748  0.39797572    -0.01800
C889        C  0.38318280  0.91594248  0.37616871     0.03200
C890        C  0.32578310  0.89252152  0.30755136     0.37800
C891        C  0.36655169  0.91484348  0.42867050     0.37800
C892        C  0.42133810  0.93261681  0.38442052     0.36200
C893        C  0.27092151  0.86873139  0.35186336     0.36200
N894        N  0.45178941  0.94599555  0.39100779    -0.38600
N895        N  0.24053629  0.85565851  0.34517053    -0.38600
N896        N  0.37437845  0.92179532  0.45319903    -0.38000
N897        N  0.31771715  0.89018676  0.28299822    -0.38000
C898        C  0.54963388  0.90680774  0.16244925    -0.04700
C899        C  0.58128221  0.90391600  0.16634594    -0.01800
C900        C  0.59303545  0.88907734  0.14387983     0.03200
C901        C  0.57386215  0.87775697  0.11695203    -0.04700
C902        C  0.54320527  0.88219190  0.11265697    -0.01800
C903        C  0.53066699  0.89570327  0.13549655     0.03200
C904        C  0.60120297  0.91492022  0.19396487     0.37800
C905        C  0.52537046  0.87455699  0.08415639     0.37800
C906        C  0.49863710  0.89899403  0.13091184     0.36200
C907        C  0.62392182  0.88403959  0.14913120     0.36200
N908        N  0.47290846  0.90131008  0.12724820    -0.38600
N909        N  0.64852944  0.87999149  0.15345424    -0.38600
N910        N  0.51121822  0.86929004  0.06144097    -0.38000
N911        N  0.61725099  0.92381892  0.21591771    -0.38000
C912        C  0.54633763  0.90822424  0.34386763    -0.04700
C913        C  0.53648598  0.87106961  0.34100908    -0.01800
C914        C  0.54722027  0.85437822  0.36263343     0.03200
C915        C  0.56775546  0.87455548  0.38743357    -0.04700
C916        C  0.57810138  0.91177324  0.39010091    -0.01800
C917        C  0.56712413  0.92847419  0.36860149     0.03200
C918        C  0.51601504  0.85007250  0.31548260     0.37800
C919        C  0.59909682  0.93256758  0.41548541     0.37800
C920        C  0.57565258  0.96601742  0.37280174     0.36200
C921        C  0.53760909  0.81641672  0.35903651     0.36200
N922        N  0.58224177  0.99588078  0.37621364    -0.38600
N923        N  0.52993093  0.78615715  0.35610832    -0.38600
N924        N  0.61597898  0.94916135  0.43569356    -0.38000
N925        N  0.49965317  0.83328397  0.29515577    -0.38000
C926        C  0.63323888  0.09179583  0.15673642    -0.04700
C927        C  0.62420921  0.07611810  0.12832817    -0.01800
C928        C  0.65077295  0.08961385  0.10574230     0.03200
C929        C  0.68666749  0.11839841  0.11160030    -0.04700
C930        C  0.69589462  0.13299497  0.14029554    -0.01800
C931        C  0.66943553  0.11952491  0.16283762     0.03200
C932        C  0.58753703  0.04615362  0.12236736     0.37800
C933        C  0.73232966  0.16313023  0.14628790     0.37800
C934        C  0.67960032  0.13392583  0.19246345     0.36200
C935        C  0.64106876  0.07420358  0.07638141     0.36200
N936        N  0.68779872  0.14525965  0.21613519    -0.38600
N937        N  0.63328937  0.06173049  0.05300151    -0.38600
N938        N  0.76136059  0.18740480  0.15090611    -0.38000
N939        N  0.55829983  0.02216715  0.11768674    -0.38000
C940        C  0.68658819  0.11492541  0.39238612    -0.04700
C941        C  0.69800581  0.11273194  0.36371232    -0.01800
C942        C  0.67306939  0.10147850  0.33993606     0.03200
C943        C  0.63661607  0.09308659  0.34440378    -0.04700
C944        C  0.62504978  0.09495394  0.37307180    -0.01800
C945        C  0.64977394  0.10549718  0.39696773     0.03200
C946        C  0.73604901  0.12465462  0.35819778     0.37800
C947        C  0.58749890  0.08538779  0.37808425     0.37800
C948        C  0.63721644  0.10670664  0.42641577     0.36200
C949        C  0.68554319  0.10026701  0.31048501     0.36200
N950        N  0.62703937  0.10755943  0.44984973    -0.38600
N951        N  0.69555514  0.09941133  0.28699336    -0.38600
N952        N  0.55754887  0.07780355  0.38201998    -0.38000
N953        N  0.76648767  0.13450161  0.35381352    -0.38000
C954        C  0.43148883  0.12349731  0.11771102    -0.04700
C955        C  0.46310778  0.14443824  0.13532450    -0.01800
C956        C  0.47345703  0.12750462  0.15701189     0.03200
C957        C  0.45344764  0.08903217  0.16076670    -0.04700
C958        C  0.42155885  0.06813919  0.14322521    -0.01800
C959        C  0.40960459  0.08562054  0.12326477     0.03200
C960        C  0.48488147  0.18400371  0.13210221     0.37800
C961        C  0.40143504  0.02836125  0.14410939     0.37800
C962        C  0.37435326  0.06430102  0.10900852     0.36200
C963        C  0.50442462  0.15033555  0.17588833     0.36200
N964        N  0.34560271  0.04684002  0.09872493    -0.38600
N965        N  0.52903416  0.16870367  0.19093861    -0.38600
N966        N  0.38480387  0.99662753  0.14427358    -0.38000
N967        N  0.50275266  0.21549868  0.12961976    -0.38000
C968        C  0.45777312  0.09481457  0.34127413    -0.04700
C969        C  0.43564905  0.07490865  0.36566819    -0.01800
C970        C  0.42449730  0.09214477  0.38648443     0.03200
C971        C  0.43458677  0.12917211  0.38292588    -0.04700
C972        C  0.45534600  0.14867048  0.35798786    -0.01800
C973        C  0.46705973  0.13170409  0.33740134     0.03200
C974        C  0.42506189  0.03682451  0.37006231     0.37800
C975        C  0.46428709  0.18627566  0.35326766     0.37800
C976        C  0.48756956  0.15195940  0.31167694     0.36200
C977        C  0.40423060  0.07232516  0.41245733     0.36200
N978        N  0.50384343  0.16808397  0.29110933    -0.38600
N979        N  0.38824665  0.05668866  0.43328164    -0.38600
N980        N  0.47129326  0.21621500  0.34945282    -0.38000
N981        N  0.41621898  0.00633850  0.37360111    -0.38000
C982        C  0.47034856  0.07638037  0.81752120     0.43100
N983        N  0.49729286  0.06381312  0.78325637     0.02000
C984        C  0.41535253  0.90501739  0.69835741    -0.05900
H985        H  0.42069240  0.88464504  0.81555659     0.07500
C986        C  0.56034136  0.95503319  0.80576083    -0.06300
Co987      Co  0.44380782  0.99461777  0.75248503     0.74200
N988        N  0.43565598  0.92987354  0.78539926    -0.25400
Co989      Co  0.47023792  0.92880890  0.75238606     0.74100
C990        C  0.53426325  0.92129870  0.82042199     0.43200
N991        N  0.57847967  0.03970139  0.78322430     0.01600
N992        N  0.50739554  0.93155789  0.78460220     0.01700
N993        N  0.39987652  0.94889865  0.70102939    -0.46300
H994        H  0.41566444  0.02401662  0.80870976     0.07500
N995        N  0.42671505  0.95559318  0.78470932     0.02000
N996        N  0.50691851  0.93090530  0.71948030     0.01700
C997        C  0.53503954  0.92003997  0.68495755     0.43300
N998        N  0.56938994  0.06531937  0.78336940    -0.24900
C999        C  0.44153939  0.03824095  0.69994380    -0.05800
N1000       N  0.50260078  0.08923330  0.80310257    -0.46000
N1001       N  0.50207753  0.90682487  0.69845802    -0.46200
C1002       C  0.46687898  0.07122379  0.68399918     0.43100
N1003       N  0.42422785  0.95357712  0.72126543     0.02000
N1004       N  0.56853612  0.06389735  0.71854483    -0.24900
N1005       N  0.46342251  0.03598300  0.78357198    -0.25400
N1006       N  0.57810656  0.03866370  0.71962738     0.01600
H1007       H  0.58417352  0.10986088  0.68912727     0.07500
H1008       H  0.58944930  0.97170222  0.69577042     0.07500
N1009       N  0.43380954  0.92832403  0.72051842    -0.25500
N1010       N  0.54136626  0.95915520  0.78409711    -0.25100
N1011       N  0.49585055  0.06107152  0.71841115     0.02000
C1012       C  0.39886764  0.92431848  0.82258240     0.43400
C1013       C  0.58717327  0.08824441  0.80592825    -0.06300
N1014       N  0.54098074  0.95839740  0.72034697    -0.25100
H1015       H  0.58920057  0.97275124  0.80997334     0.07500
N1016       N  0.40474937  0.95303427  0.80614824    -0.46300
H1017       H  0.58588639  0.11238657  0.81161714     0.07500
C1018       C  0.60714239  0.07117209  0.68254379     0.43200
C1019       C  0.44453833  0.04141257  0.80442662    -0.05800
Co1020     Co  0.53348969  0.06483786  0.75081172     0.73800
N1021       N  0.60175269  0.04375470  0.80418247    -0.46000
C1022       C  0.39292645  0.91899612  0.68571616     0.43500
N1023       N  0.50015945  0.08436855  0.69696967    -0.46000
Co1024     Co  0.56001154  0.99911127  0.75187037     0.73900
C1025       C  0.56049715  0.95397782  0.69950048    -0.06300
C1026       C  0.41911487  0.90839683  0.80899867    -0.05900
N1027       N  0.46176984  0.03398872  0.72023219    -0.25400
N1028       N  0.50195456  0.90778379  0.80596120    -0.46200
H1029       H  0.41673048  0.88099819  0.69240816     0.07500
C1030       C  0.58576577  0.08606424  0.69551279    -0.06300
Cl1031     Cl  0.50188805  0.99683489  0.75181178    -0.49300
C1032       C  0.60868392  0.07362442  0.81955685     0.43200
H1033       H  0.41230547  0.02126513  0.69803989     0.07400
N1034       N  0.60132947  0.04229615  0.69882732    -0.46000
C1035       C  0.08139753  0.60426025  0.82431778     0.43100
N1036       N  0.07102042  0.56974458  0.78667361     0.02000
C1037       C  0.91529104  0.50188410  0.69989911    -0.05900
H1038       H  0.88764047  0.47154445  0.81144211     0.07500
C1039       C  0.96158541  0.39924105  0.80238364    -0.06300
Co1040     Co  0.00427418  0.55890030  0.75524420     0.74200
N1041       N  0.93740954  0.50184359  0.78608561    -0.25400
Co1042     Co  0.93734282  0.46727065  0.75243985     0.74100
C1043       C  0.92889697  0.39183019  0.81788925     0.43200
N1044       N  0.04591486  0.46406519  0.78215784     0.01600
N1045       N  0.93914668  0.43074577  0.78338934     0.01700
N1046       N  0.95997150  0.56130648  0.70419213    -0.46300
H1047       H  0.03115314  0.60947298  0.81544138     0.07500
N1048       N  0.96366417  0.53661133  0.78681006     0.02000
N1049       N  0.93948769  0.43429197  0.71846225     0.01700
C1050       C  0.92935839  0.39945138  0.68102946     0.43300
N1051       N  0.07189461  0.49883619  0.78387374    -0.24900
C1052       C  0.04960120  0.60504380  0.70257051    -0.05800
N1053       N  0.09474966  0.58651758  0.80840508    -0.46000
N1054       N  0.91583432  0.41723426  0.69671537    -0.46200
C1055       C  0.08225298  0.61179383  0.68699991     0.43100
N1056       N  0.96407890  0.54016224  0.72340891     0.02000
N1057       N  0.07254759  0.50193165  0.71923223    -0.24900
N1058       N  0.04409287  0.57680451  0.78718796    -0.25400
N1059       N  0.04630429  0.46719591  0.71891038     0.01600
H1060       H  0.12126061  0.53196336  0.69259082     0.07500
H1061       H  0.97932545  0.39406401  0.69047878     0.07500
N1062       N  0.93827392  0.50528233  0.72174514    -0.25500
N1063       N  0.96588244  0.42348563  0.78172494    -0.25100
N1064       N  0.07114127  0.57294355  0.72184582     0.02000
C1065       C  0.92760689  0.53281793  0.82124456     0.43400
C1066       C  0.09439687  0.50205059  0.80613327    -0.06300
N1067       N  0.96640465  0.42721658  0.71819342    -0.25100
H1068       H  0.97873099  0.38740500  0.80552920     0.07500
N1069       N  0.95865114  0.55594917  0.80713811    -0.46300
H1070       H  0.11878602  0.52700744  0.81274319     0.07500
C1071       C  0.08111010  0.47037127  0.68390601     0.43200
C1072       C  0.04831184  0.59820188  0.81013192    -0.05800
Co1073     Co  0.07290866  0.53663983  0.75286442     0.73800
N1074       N  0.04942028  0.44282710  0.80160602    -0.46000
C1075       C  0.92981311  0.53930196  0.68856922     0.43500
N1076       N  0.09457415  0.59131413  0.70032301    -0.46000
Co1077     Co  0.00603957  0.44531647  0.75022494     0.73900
C1078       C  0.96224765  0.40552511  0.69547802    -0.06300
C1079       C  0.91302531  0.49671379  0.80728377    -0.05900
N1080       N  0.04474518  0.58073350  0.72345111    -0.25400
N1081       N  0.91574746  0.41176266  0.80479700    -0.46200
H1082       H  0.89092146  0.47680032  0.69347385     0.07500
C1083       C  0.09615527  0.50679336  0.69744070    -0.06300
Cl1084     Cl  0.00511781  0.50208192  0.75267603    -0.49300
C1085       C  0.07920569  0.46457256  0.81764147     0.43200
H1086       H  0.03280098  0.61724400  0.69930260     0.07400
N1087       N  0.05055944  0.44751312  0.69851509    -0.46000
C1088       C  0.39372661  0.46564149  0.81679171     0.43100
N1089       N  0.43387511  0.49497149  0.78281848     0.02000
C1090       C  0.51232304  0.41560157  0.69812368    -0.05900
H1091       H  0.53460750  0.41885561  0.81442065     0.07500
C1092       C  0.60655292  0.56256397  0.80491392    -0.06300
Co1093     Co  0.44982309  0.44312891  0.75017162     0.74200
N1094       N  0.50539042  0.43472116  0.78426812    -0.25400
Co1095     Co  0.54231592  0.47087974  0.75241285     0.74100
C1096       C  0.61543594  0.53768062  0.81950076     0.43200
N1097       N  0.53937677  0.57878707  0.78313523     0.01600
N1098       N  0.57624810  0.50847770  0.78522499     0.01700
N1099       N  0.45341710  0.40163002  0.69832035    -0.46300
H1100       H  0.38991043  0.41123251  0.80400456     0.07500
N1101       N  0.47047207  0.42469021  0.78245820     0.02000
N1102       N  0.57761805  0.50851971  0.72020261     0.01700
C1103       C  0.61672464  0.53733345  0.68567482     0.43300
N1104       N  0.50448288  0.56898740  0.78327610    -0.24900
C1105       C  0.40585203  0.44255256  0.69675411    -0.05800
N1106       N  0.41412458  0.49902238  0.80364608    -0.46000
N1107       N  0.59729969  0.50428055  0.69943884    -0.46200
C1108       C  0.39683920  0.46784954  0.68292053     0.43100
N1109       N  0.47259715  0.42557212  0.71901987     0.02000
N1110       N  0.50554564  0.56854350  0.71827530    -0.24900
N1111       N  0.42705698  0.46092625  0.78146152    -0.25400
N1112       N  0.54040868  0.57836770  0.71957757     0.01600
H1113       H  0.47550959  0.58271170  0.68751278     0.07500
H1114       H  0.61957778  0.59152872  0.69689751     0.07500
N1115       N  0.50725630  0.43453323  0.71965137    -0.25500
N1116       N  0.58254262  0.54238126  0.78416423    -0.25100
N1117       N  0.43528240  0.49575423  0.71786672     0.02000
C1118       C  0.47235861  0.39468816  0.81937276     0.43400
C1119       C  0.49927537  0.58692920  0.80551908    -0.06300
N1120       N  0.58383268  0.54238718  0.72088778    -0.25100
H1121       H  0.61780479  0.59163779  0.80832627     0.07500
N1122       N  0.44996488  0.40074942  0.80269958    -0.46300
H1123       H  0.47376494  0.58533350  0.81109169     0.07500
C1124       C  0.53753491  0.60623229  0.68147246     0.43200
C1125       C  0.40201514  0.44054532  0.80152994    -0.05800
Co1126     Co  0.46916912  0.53278538  0.75064744     0.73800
N1127       N  0.55873391  0.60265897  0.80385114    -0.46000
C1128       C  0.47635812  0.39417375  0.68388520     0.43500
N1129       N  0.41609764  0.50056335  0.69698561    -0.46000
Co1130     Co  0.56157512  0.56066703  0.75197289     0.73900
C1131       C  0.60811080  0.56241636  0.70027017    -0.06300
C1132       C  0.50939783  0.41705226  0.80741002    -0.05900
N1133       N  0.42927965  0.46197129  0.71809665    -0.25400
N1134       N  0.59576395  0.50436026  0.80629604    -0.46200
H1135       H  0.53757857  0.41620784  0.69341497     0.07500
C1136       C  0.50093572  0.58500820  0.69452915    -0.06300
Cl1137     Cl  0.50572550  0.50182999  0.75139891    -0.49300
C1138       C  0.53550520  0.60899381  0.81901414     0.43200
H1139       H  0.39508293  0.41371496  0.69250324     0.07400
N1140       N  0.56029146  0.60096035  0.69839029    -0.46000
C1141       C  0.81675946  0.47461716  0.50348133     0.43100
N1142       N  0.79605356  0.50955038  0.51556745     0.02000
C1143       C  0.75534788  0.61900168  0.92322274    -0.05900
H1144       H  0.89195801  0.64817186  0.91615357     0.07500
C1145       C  0.90544524  0.67856067  0.52859089    -0.06300
Co1146     Co  0.77598960  0.54246990  0.96114277     0.74200
N1147       N  0.84345239  0.60874795  0.93989333    -0.25400
Co1148     Co  0.82327559  0.63669623  0.96527728     0.74100
C1149       C  0.92821908  0.69172368  0.00311535     0.43200
N1150       N  0.84151035  0.60012393  0.56468133     0.01600
N1151       N  0.87160178  0.66269498  0.99035036     0.01700
N1152       N  0.72737737  0.55725292  0.92378345    -0.46300
H1153       H  0.80922837  0.48616014  0.94825516     0.07500
N1154       N  0.82488146  0.57256049  0.93955283     0.02000
N1155       N  0.80192999  0.66227155  0.99168004     0.01700
C1156       C  0.77491712  0.69040776  0.50226693     0.43300
N1157       N  0.82261379  0.56407055  0.56247339    -0.24900
C1158       C  0.69353211  0.49270192  0.97230188    -0.05800
N1159       N  0.80700094  0.48774745  0.52653488    -0.46000
N1160       N  0.78682579  0.68113881  0.98191513    -0.46200
C1161       C  0.67156930  0.47355569  0.50129656     0.43100
N1162       N  0.75675211  0.57228541  0.94048166     0.02000
N1163       N  0.75456673  0.56318368  0.56255942    -0.24900
N1164       N  0.79530253  0.51252034  0.98224761    -0.25400
N1165       N  0.77175939  0.59920602  0.56512250     0.01600
H1166       H  0.70797426  0.51883623  0.58387220     0.07500
H1167       H  0.77957402  0.68005271  0.55153036     0.07500
N1168       N  0.77400462  0.60840303  0.94092111    -0.25500
N1169       N  0.87089041  0.65995603  0.51865557    -0.25100
N1170       N  0.72683209  0.50863788  0.51502023     0.02000
C1171       C  0.86895051  0.58592255  0.90999599     0.43400
C1172       C  0.83805196  0.54952112  0.57883096    -0.06300
N1173       N  0.80091591  0.65903419  0.51872065    -0.25100
H1174       H  0.91377489  0.68165574  0.55140908     0.07500
N1175       N  0.83893207  0.55806250  0.92205767    -0.46300
H1176       H  0.82748338  0.52052383  0.58208431     0.07500
C1177       C  0.72653607  0.57846402  0.59514383     0.43200
C1178       C  0.80744979  0.49129169  0.97132366    -0.05800
Co1179     Co  0.77478459  0.53606200  0.53910523     0.73800
N1180       N  0.86988472  0.61138797  0.58286221    -0.46000
C1181       C  0.72391037  0.58446720  0.91226219     0.43500
N1182       N  0.69352606  0.48632998  0.52514384    -0.46000
Co1183     Co  0.82182114  0.63072196  0.54238802     0.73900
C1184       C  0.78466798  0.67719997  0.52865856    -0.06300
C1185       C  0.87211032  0.62000913  0.92140832    -0.05900
N1186       N  0.72712076  0.51301776  0.98317998    -0.25400
N1187       N  0.90534421  0.68158042  0.97978760    -0.46200
H1188       H  0.76300207  0.64702883  0.91832403     0.07500
C1189       C  0.72568827  0.54793347  0.58024143    -0.06300
Cl1190     Cl  0.79921492  0.58509793  0.50253408    -0.49300
C1191       C  0.86952966  0.58054720  0.59199892     0.43200
H1192       H  0.68653309  0.48915904  0.94918777     0.07400
N1193       N  0.75598190  0.60976644  0.58506630    -0.46000
C1194       C  0.66231544  0.19050041  0.50120192     0.43100
N1195       N  0.71700427  0.21013253  0.51596230     0.02000
C1196       C  0.86537565  0.25098942  0.92070118    -0.05900
H1197       H  0.75490833  0.11315756  0.91926039     0.07500
C1198       C  0.77959640  0.10348354  0.53337186    -0.06300
Co1199     Co  0.77021821  0.23248668  0.96056959     0.74200
N1200       N  0.76714091  0.16406148  0.94037770    -0.25400
Co1201     Co  0.81628919  0.18500215  0.96461894     0.74100
C1202       C  0.76670692  0.08050941  0.00450598     0.43200
N1203       N  0.76314216  0.16623659  0.56660846     0.01600
N1204       N  0.79398795  0.13709720  0.99041499     0.01700
N1205       N  0.83233098  0.27935544  0.92088314    -0.46300
H1206       H  0.68148338  0.19850311  0.94763932     0.07500
N1207       N  0.75030057  0.18306015  0.93964602     0.02000
N1208       N  0.86456182  0.20746657  0.99002983     0.01700
C1209       C  0.92063317  0.23435078  0.50571451     0.43300
N1210       N  0.74460369  0.18340234  0.56355259    -0.24900
C1211       C  0.80452548  0.31582913  0.97189831    -0.05800
N1212       N  0.68383149  0.20042838  0.52537378    -0.46000
N1213       N  0.89849720  0.22267626  0.97984153    -0.46200
C1214       C  0.80866269  0.33515077  0.50297055     0.43100
N1215       N  0.81879606  0.25131455  0.93913481     0.02000
N1216       N  0.81171039  0.25310346  0.56467421    -0.24900
N1217       N  0.72136167  0.21319037  0.98207647    -0.25400
N1218       N  0.83153220  0.23726037  0.56724457     0.01600
H1219       H  0.81411890  0.30039375  0.58464429     0.07500
H1220       H  0.90524685  0.22911138  0.55488935     0.07500
N1221       N  0.83708412  0.23373607  0.93957345    -0.25500
N1222       N  0.79460286  0.13759131  0.52251044    -0.25100
N1223       N  0.78578543  0.27936215  0.51617383     0.02000
C1224       C  0.71662009  0.13676840  0.91243781     0.43400
C1225       C  0.71335028  0.16548915  0.57834986    -0.06300
N1226       N  0.86307595  0.20830766  0.52176722    -0.25100
H1227       H  0.77595840  0.09637968  0.55647359     0.07500
N1228       N  0.72059353  0.16802830  0.92328956    -0.46300
H1229       H  0.69319591  0.17378375  0.58050985     0.07500
C1230       C  0.85655218  0.28411239  0.59568110     0.43200
C1231       C  0.68811178  0.20061773  0.97081186    -0.05800
Co1232     Co  0.76450105  0.23163982  0.54043561     0.73800
N1233       N  0.74608965  0.13701456  0.58397185    -0.46000
C1234       C  0.86184618  0.28134495  0.90850349     0.43500
N1235       N  0.79780912  0.31272094  0.52651215    -0.46000
Co1236     Co  0.81379919  0.18702603  0.54515859     0.73900
C1237       C  0.89748583  0.22465752  0.53192701    -0.06300
C1238       C  0.74786925  0.13399691  0.92345504    -0.05900
N1239       N  0.79064561  0.28179115  0.98239415    -0.25400
N1240       N  0.77804029  0.10284524  0.98065588    -0.46200
H1241       H  0.88459124  0.24231694  0.91509234     0.07500
C1242       C  0.82549314  0.28280311  0.58162628    -0.06300
Cl1243     Cl  0.79032517  0.20788095  0.50463710    -0.49300
C1244       C  0.71413457  0.13474119  0.59147645     0.43200
H1245       H  0.80712898  0.32341594  0.94891251     0.07400
N1246       N  0.85893873  0.25493256  0.58624179    -0.46000
C1247       C  0.34530150  0.81159696  0.49918591     0.43100
N1248       N  0.28996947  0.79318639  0.51089558     0.02000
C1249       C  0.14605319  0.74870215  0.92197223    -0.05900
H1250       H  0.25181271  0.88977531  0.92035238     0.07500
C1251       C  0.22759630  0.89665032  0.52796539    -0.06300
Co1252     Co  0.24381655  0.77357485  0.96165232     0.74200
N1253       N  0.24274190  0.84004979  0.94182871    -0.25400
Co1254     Co  0.19267350  0.81642706  0.96471049     0.74100
C1255       C  0.23770315  0.92005042  0.00471548     0.43200
N1256       N  0.24347586  0.83372332  0.56223019     0.01600
N1257       N  0.21182898  0.86368438  0.99070358     0.01700
N1258       N  0.18261227  0.72415453  0.92173665    -0.46300
H1259       H  0.33458578  0.80648163  0.95282793     0.07500
N1260       N  0.26191625  0.82337546  0.94192403     0.02000
N1261       N  0.14371376  0.79190826  0.98880096     0.01700
C1262       C  0.08633030  0.76438198  0.50021377     0.43300
N1263       N  0.26184374  0.81653703  0.55880669    -0.24900
C1264       C  0.21205699  0.69042829  0.97177234    -0.05800
N1265       N  0.32261006  0.80463907  0.52198276    -0.46000
N1266       N  0.11019208  0.77686573  0.97772359    -0.46200
C1267       C  0.20402126  0.66697088  0.49715962     0.43100
N1268       N  0.19546506  0.75294607  0.93914434     0.02000
N1269       N  0.19534642  0.74656273  0.55907652    -0.24900
N1270       N  0.29223825  0.79419638  0.98454769    -0.25400
N1271       N  0.17559557  0.76237983  0.56213441     0.01600
H1272       H  0.19519855  0.70096909  0.58017949     0.07500
H1273       H  0.10078625  0.76749138  0.54937942     0.07500
N1274       N  0.17503441  0.76826688  0.93979115    -0.25500
N1275       N  0.21184822  0.86232904  0.51734214    -0.25100
N1276       N  0.22296752  0.72187065  0.51050647     0.02000
C1277       C  0.29410835  0.87096083  0.91575505     0.43400
C1278       C  0.29227483  0.83279198  0.57477407    -0.06300
N1279       N  0.14348169  0.79061495  0.51659577    -0.25100
H1280       H  0.23283251  0.90427684  0.55092328     0.07500
N1281       N  0.29236446  0.84068400  0.92667737    -0.46300
H1282       H  0.31161453  0.82347837  0.57729480     0.07500
C1283       C  0.15292085  0.71711787  0.59249957     0.43200
C1284       C  0.32643603  0.80594983  0.97543423    -0.05800
Co1285     Co  0.24258785  0.76935458  0.53491437     0.73800
N1286       N  0.25980351  0.86130350  0.58129811    -0.46000
C1287       C  0.15146135  0.71941931  0.91028664     0.43500
N1288       N  0.21276207  0.68885792  0.52086733    -0.46000
Co1289     Co  0.19290637  0.81268736  0.54015338     0.73900
C1290       C  0.10896945  0.77316074  0.52656483    -0.06300
C1291       C  0.26082655  0.87057273  0.92525382    -0.05900
N1292       N  0.22492914  0.72408134  0.98269848    -0.25400
N1293       N  0.22675004  0.89786672  0.98088413    -0.46200
H1294       H  0.12470892  0.75477352  0.91719079     0.07500
C1295       C  0.18284538  0.71766127  0.57688322    -0.06300
Cl1296     Cl  0.21658200  0.79239795  0.49942752    -0.49300
C1297       C  0.29130779  0.86255710  0.58925794     0.43200
H1298       H  0.20978934  0.68324933  0.94872629     0.07400
N1299       N  0.14981222  0.74574311  0.58250772    -0.46000
C1300       C  0.56984253  0.85015769  0.91351023     0.43100
N1301       N  0.59379696  0.82713832  0.94182359     0.02000
C1302       C  0.49432108  0.68021012  0.52970767    -0.05900
H1303       H  0.48819314  0.79652860  0.55672021     0.07500
C1304       C  0.61611041  0.86092704  0.58214861    -0.06300
Co1305     Co  0.53508036  0.75868627  0.96990380     0.74200
N1306       N  0.51168488  0.78117654  0.52165957    -0.25400
Co1307     Co  0.54258740  0.76294001  0.54210194     0.74100
C1308       C  0.58123034  0.85615348  0.59325840     0.43200
N1309       N  0.66028661  0.86277596  0.51374061     0.01600
N1310       N  0.57059137  0.81172289  0.56445147     0.01700
N1311       N  0.48953613  0.67779284  0.98474481    -0.46300
H1312       H  0.51165939  0.80571377  0.92584794     0.07500
N1313       N  0.50800098  0.77744806  0.99572480     0.02000
N1314       N  0.57387471  0.74501467  0.56185864     0.01700
C1315       C  0.58832258  0.71271862  0.58842978     0.43300
N1316       N  0.65617293  0.86148386  0.98531471    -0.24900
C1317       C  0.54938517  0.71047301  0.92866986    -0.05800
N1318       N  0.60210827  0.85383743  0.92239648    -0.46000
N1319       N  0.56012907  0.71469065  0.57746260    -0.46200
C1320       C  0.58043753  0.71316378  0.91339404     0.43100
N1321       N  0.51253769  0.71114151  0.99448375     0.02000
N1322       N  0.66120192  0.79439159  0.98459598    -0.24900
N1323       N  0.55817780  0.80619350  0.94534431    -0.25400
N1324       N  0.66351263  0.79467026  0.51166523     0.01600
H1325       H  0.68202541  0.77425825  0.95062040     0.07500
H1326       H  0.65004731  0.75481810  0.58344645     0.07500
N1327       N  0.51468165  0.71425381  0.51939320    -0.25500
N1328       N  0.60651410  0.83203230  0.56406073    -0.25100
N1329       N  0.59891480  0.76045075  0.94094740     0.02000
C1330       C  0.47417064  0.80019607  0.50835136     0.43400
C1331       C  0.67201557  0.89577610  0.97465649    -0.06300
N1332       N  0.60984836  0.76404441  0.56173786    -0.25100
H1333       H  0.64374906  0.88234533  0.58699347     0.07500
N1334       N  0.48556907  0.78856660  0.98679548    -0.46300
H1335       H  0.67286546  0.90300526  0.95171727     0.07500
C1336       C  0.69509569  0.77059450  0.49679047     0.43200
C1337       C  0.54092746  0.81858004  0.92851254    -0.05800
Co1338     Co  0.62860183  0.81150669  0.96257765     0.73800
N1339       N  0.67866001  0.89652032  0.52453985    -0.52300
C1340       C  0.47682404  0.65795654  0.50374634     0.43500
N1341       N  0.61045515  0.74521433  0.92134916    -0.46000
Co1342     Co  0.63620949  0.81402141  0.53833109     0.73900
C1343       C  0.62181788  0.74589498  0.57856197    -0.06300
C1344       C  0.49127072  0.79355392  0.53346397    -0.05900
N1345       N  0.56326723  0.74079040  0.94491154    -0.25400
N1346       N  0.55475650  0.82488741  0.58142740    -0.46200
H1347       H  0.48946593  0.67258482  0.55269355     0.07500
C1348       C  0.68006369  0.77937860  0.97365874    -0.06300
Cl1349     Cl  0.58616723  0.78816648  0.50202612    -0.49300
C1350       C  0.68619704  0.91964180  0.00044233     0.43200
H1351       H  0.52072838  0.69011343  0.92656537     0.07400
N1352       N  0.68344618  0.78048674  0.52093654    -0.46000
C1353       C  0.18897343  0.52468943  0.49705252     0.43100
N1354       N  0.20918005  0.49024224  0.51195674     0.02000
C1355       C  0.25311272  0.38827788  0.92056846    -0.05900
H1356       H  0.11609330  0.35270282  0.91608401     0.07500
C1357       C  0.10463964  0.32336503  0.53114727    -0.06300
Co1358     Co  0.22965809  0.46123562  0.96149015     0.74200
N1359       N  0.16426080  0.39314896  0.93967056    -0.25400
Co1360     Co  0.18655873  0.36693516  0.96482774     0.74100
C1361       C  0.08140212  0.30853566  0.00335403     0.43200
N1362       N  0.16723382  0.40246743  0.56490795     0.01600
N1363       N  0.13807120  0.33850728  0.99004158     0.01700
N1364       N  0.27895678  0.44987912  0.92130434    -0.46300
H1365       H  0.19394428  0.51470702  0.94825119     0.07500
N1366       N  0.18164863  0.42931112  0.93945559     0.02000
N1367       N  0.21043406  0.34324427  0.99101624     0.01700
C1368       C  0.23283606  0.30945068  0.50732207     0.43300
N1369       N  0.18410839  0.43820092  0.56071425    -0.24900
C1370       C  0.31167103  0.51534927  0.97506108    -0.05800
N1371       N  0.19775805  0.51230496  0.52123562    -0.46000
N1372       N  0.22689678  0.32562716  0.98136699    -0.46200
C1373       C  0.33497699  0.52824970  0.50218168     0.43100
N1374       N  0.25164473  0.43394000  0.94014189     0.02000
N1375       N  0.25338843  0.44181716  0.56240902    -0.24900
N1376       N  0.20693799  0.48804327  0.98261233    -0.25400
N1377       N  0.23864595  0.40605639  0.56515152     0.01600
H1378       H  0.30020588  0.48838431  0.58105324     0.07500
H1379       H  0.22752920  0.32092598  0.55598356     0.07500
N1380       N  0.23549758  0.39780668  0.94024230    -0.25500
N1381       N  0.13887603  0.34117703  0.52069903    -0.25100
N1382       N  0.27926379  0.49338707  0.51398863     0.02000
C1383       C  0.13694320  0.41469240  0.91014854     0.43400
C1384       C  0.16777634  0.45260584  0.57598214    -0.06300
N1385       N  0.20882730  0.34301931  0.52167170    -0.25100
H1386       H  0.09723737  0.32125018  0.55411648     0.07500
N1387       N  0.16651627  0.44299183  0.92228545    -0.46300
H1388       H  0.17697337  0.48150347  0.57782235     0.07500
C1389       C  0.28770121  0.43005991  0.59145296     0.43200
C1390       C  0.19429952  0.50868369  0.97134650    -0.05800
Co1391     Co  0.23146163  0.46618406  0.53747956     0.73800
N1392       N  0.13965304  0.39134441  0.58381462    -0.46000
C1393       C  0.28200741  0.42325915  0.90793813     0.43500
N1394       N  0.31187629  0.51556383  0.52512043    -0.46000
Co1395     Co  0.18801528  0.37207819  0.54379246     0.73900
C1396       C  0.22359352  0.32399819  0.53286103    -0.06300
C1397       C  0.13531440  0.38106686  0.92128420    -0.05900
N1398       N  0.27756326  0.49293510  0.98448960    -0.25400
N1399       N  0.10405850  0.31966061  0.97976703    -0.46200
H1400       H  0.24503877  0.36053154  0.91427823     0.07500
C1401       C  0.28363572  0.45898965  0.57843477    -0.06300
Cl1402     Cl  0.20921933  0.41584598  0.50249456    -0.49300
C1403       C  0.13827414  0.42184747  0.59096960     0.43200
H1404       H  0.32029991  0.52083423  0.95233489     0.07400
N1405       N  0.25831374  0.39757317  0.58288910    -0.46000
C1406       C  0.42700728  0.14757049  0.90405896     0.43100
N1407       N  0.40564219  0.17019316  0.93526248     0.02000
C1408       C  0.51569388  0.31844353  0.53037364    -0.05900
H1409       H  0.52195116  0.20119171  0.54983509     0.07500
C1410       C  0.39242144  0.13823340  0.58242159    -0.06300
Co1411     Co  0.46808799  0.23617532  0.96297774     0.74200
N1412       N  0.49517650  0.21698265  0.51774437    -0.25400
Co1413     Co  0.46591054  0.23488297  0.54117986     0.74100
C1414       C  0.42723522  0.14339139  0.59391415     0.43200
N1415       N  0.34652232  0.13638483  0.51352748     0.01600
N1416       N  0.43807697  0.18528136  0.56233525     0.01700
N1417       N  0.51654740  0.31641241  0.97768401    -0.46300
H1418       H  0.48611926  0.18988233  0.91540586     0.07500
N1419       N  0.49408474  0.21367307  0.98563288     0.02000
N1420       N  0.43583875  0.25201123  0.56413226     0.01700
C1421       C  0.42294693  0.28060724  0.59602339     0.43300
N1422       N  0.34591779  0.13813285  0.98207213    -0.24900
C1423       C  0.45575103  0.28844894  0.92580963    -0.05800
N1424       N  0.39547654  0.14410661  0.91484880    -0.46000
N1425       N  0.45052565  0.27981492  0.58258642    -0.46200
C1426       C  0.42509605  0.28874190  0.91248177     0.43100
N1427       N  0.49477023  0.28314693  0.98800933     0.02000
N1428       N  0.34588990  0.20787671  0.98344304    -0.24900
N1429       N  0.44149403  0.18993955  0.93766049    -0.25400
N1430       N  0.34354185  0.20496053  0.51535369     0.01600
H1431       H  0.32507802  0.23025174  0.95109907     0.07500
H1432       H  0.36091054  0.24006433  0.59085888     0.07500
N1433       N  0.49357343  0.28469333  0.51978270    -0.25500
N1434       N  0.40210228  0.16574820  0.56295400    -0.25100
N1435       N  0.40515990  0.23953686  0.93791632     0.02000
C1436       C  0.52947615  0.19580929  0.50017493     0.43400
C1437       C  0.32755660  0.10360367  0.97170587    -0.06300
N1438       N  0.39976703  0.23343729  0.56453364    -0.25100
H1439       H  0.36478030  0.11892970  0.58918198     0.07500
N1440       N  0.51477234  0.20203023  0.97391871    -0.46300
H1441       H  0.32426739  0.09581919  0.94875400     0.07500
C1442       C  0.31318376  0.23124042  0.50350591     0.43200
C1443       C  0.45709430  0.17772570  0.91905978    -0.05800
Co1444     Co  0.37441885  0.18818088  0.95907857     0.73800
N1445       N  0.32919087  0.10201739  0.52329326    -0.46000
C1446       C  0.53018863  0.34166416  0.50434958     0.43500
N1447       N  0.39424192  0.25721360  0.92015768    -0.46000
Co1448     Co  0.37177259  0.18447125  0.53949579     0.73900
C1449       C  0.38880867  0.24971739  0.58433489    -0.06300
C1450       C  0.51609943  0.20376558  0.52707963    -0.05900
N1451       N  0.44096843  0.25729474  0.94090847    -0.25400
N1452       N  0.45387789  0.17296415  0.58024535    -0.46200
H1453       H  0.52284130  0.32532280  0.55327501     0.07500
C1454       C  0.32803101  0.22458707  0.97383126    -0.06300
Cl1455     Cl  0.42004445  0.21155433  0.50206304    -0.49300
C1456       C  0.31503814  0.08023196  0.99787358     0.43200
H1457       H  0.48465748  0.30756284  0.92318478     0.07400
N1458       N  0.32470913  0.21939277  0.52651597    -0.46000
C1459       C  0.29311783  0.25171815  0.50579893    -0.04700
C1460       C  0.26021527  0.23850482  0.01460220    -0.01800
C1461       C  0.24123691  0.25802235  0.01534030     0.03200
C1462       C  0.25354881  0.28955982  0.50713300    -0.04700
C1463       C  0.29016058  0.30756645  0.49746968    -0.01800
C1464       C  0.30966636  0.28860352  0.49635842     0.03200
C1465       C  0.24277133  0.20114792  0.02548086     0.37800
C1466       C  0.30823176  0.34619692  0.48996477     0.37800
C1467       C  0.34732474  0.30755533  0.48657447     0.36200
C1468       C  0.20399706  0.24021168  0.02608913     0.36200
N1469       N  0.37743740  0.32271560  0.47889730    -0.38600
N1470       N  0.17421456  0.22597931  0.03453240    -0.38600
N1471       N  0.32249457  0.37713507  0.48441217    -0.38000
N1472       N  0.22891469  0.17135577  0.03420336    -0.38000
C1473       C  0.44088821  0.62437165  0.50392709    -0.04700
C1474       C  0.43432898  0.59214465  0.99100538    -0.01800
C1475       C  0.39861870  0.56195306  0.98899571     0.03200
C1476       C  0.37166876  0.56070512  0.50369067    -0.04700
C1477       C  0.37718093  0.59201441  0.51924247    -0.01800
C1478       C  0.41154700  0.62399609  0.51884219     0.03200
C1479       C  0.46342531  0.59209571  0.97445714     0.37800
C1480       C  0.34732748  0.59214583  0.53475589     0.37800
C1481       C  0.41579526  0.65723081  0.53196013     0.36200
C1482       C  0.39139306  0.53033144  0.97139343     0.36200
N1483       N  0.41904754  0.68376857  0.54215936    -0.38600
N1484       N  0.38544827  0.50504252  0.95740063    -0.38600
N1485       N  0.32373759  0.59238328  0.54728459    -0.38000
N1486       N  0.48619537  0.59152709  0.96097274    -0.38000
C1487       C  0.25740388  0.96112391  0.00346074    -0.04700
C1488       C  0.24308162  0.97901951  0.98644160    -0.01800
C1489       C  0.26182203  0.01778599  0.98457335     0.03200
C1490       C  0.29545102  0.03923042  0.99932837    -0.04700
C1491       C  0.31372965  0.01959493  0.51048781    -0.01800
C1492       C  0.29370316  0.98078963  0.51160533     0.03200
C1493       C  0.20812078  0.95754741  0.97178658     0.37800
C1494       C  0.35202648  0.03935692  0.51866906     0.37800
C1495       C  0.31083414  0.96101003  0.52275414     0.36200
C1496       C  0.24586463  0.03560931  0.96807312     0.36200
N1497       N  0.32415230  0.94486138  0.53161269    -0.38600
N1498       N  0.23304543  0.04978300  0.95494299    -0.38600
N1499       N  0.38274142  0.05512811  0.52472666    -0.38000
N1500       N  0.18015266  0.94033716  0.96022353    -0.38000
C1501       C  0.20026932  0.63072398  0.49790850    -0.04700
C1502       C  0.22962047  0.62682219  0.99579760    -0.01800
C1503       C  0.22527737  0.59171277  0.99475487     0.03200
C1504       C  0.19241276  0.56091644  0.49681846    -0.04700
C1505       C  0.16186512  0.56460862  0.50263647    -0.01800
C1506       C  0.16600911  0.59971265  0.50383835     0.03200
C1507       C  0.26596319  0.65908837  0.99507416     0.37800
C1508       C  0.12606607  0.53247730  0.50653878     0.37800
C1509       C  0.13521618  0.60409115  0.51132012     0.36200
C1510       C  0.25715009  0.58777174  0.99144322     0.36200
N1511       N  0.11087611  0.60781258  0.51756195    -0.38600
N1512       N  0.28249424  0.58462662  0.98847385    -0.38600
N1513       N  0.09711780  0.50720947  0.50921321    -0.38000
N1514       N  0.29485577  0.68487352  0.99468736    -0.38000
C1515       C  0.37906920  0.81008038  0.50230831    -0.04700
C1516       C  0.38107478  0.78700432  0.52400424    -0.01800
C1517       C  0.41340134  0.78620994  0.52779006     0.03200
C1518       C  0.44300521  0.80621514  0.50843404    -0.04700
C1519       C  0.44304420  0.82889370  0.98995604    -0.01800
C1520       C  0.41160030  0.83173612  0.98699155     0.03200
C1521       C  0.34921248  0.76169210  0.54117385     0.37800
C1522       C  0.47417346  0.85007542  0.97076137     0.37800
C1523       C  0.41002472  0.85400752  0.96346073     0.36200
C1524       C  0.41508800  0.76371370  0.55122995     0.36200
N1525       N  0.40962557  0.87144843  0.94400714    -0.38600
N1526       N  0.41581439  0.74612285  0.57047036    -0.38600
N1527       N  0.49903128  0.86707400  0.95558197    -0.38000
N1528       N  0.32391054  0.74131079  0.55473649    -0.38000
C1529       C  0.74570509  0.03923710  0.00346653    -0.04700
C1530       C  0.71919800  0.01750201  0.52558772    -0.01800
C1531       C  0.69944584  0.97879022  0.52363984     0.03200
C1532       C  0.70647666  0.96075982  0.00131928    -0.04700
C1533       C  0.73405299  0.98158557  0.98045059    -0.01800
C1534       C  0.75284924  0.02039523  0.98107898     0.03200
C1535       C  0.70750909  0.03529812  0.54657780     0.37800
C1536       C  0.74445357  0.96328221  0.95888464     0.37800
C1537       C  0.78024366  0.04075227  0.95880847     0.36200
C1538       C  0.66713409  0.95794251  0.54165817     0.36200
N1539       N  0.80184323  0.05688615  0.94086070    -0.38600
N1540       N  0.64124250  0.94167121  0.55594383    -0.38600
N1541       N  0.75301641  0.94888412  0.94170057    -0.38000
N1542       N  0.69801782  0.04904067  0.56361506    -0.38000
C1543       C  0.96175170  0.25487665  0.50434416    -0.04700
C1544       C  0.98059419  0.24187110  0.98419840    -0.01800
C1545       C  0.01931301  0.25945733  0.98439136     0.03200
C1546       C  0.04001670  0.29169197  0.50412901    -0.04700
C1547       C  0.02133667  0.30328045  0.52310532    -0.01800
C1548       C  0.98268035  0.28484723  0.52342985     0.03200
C1549       C  0.95958944  0.20947184  0.96622563     0.37800
C1550       C  0.04166411  0.33534207  0.54160237     0.37800
C1551       C  0.96468699  0.29796560  0.54287476     0.36200
C1552       C  0.03727312  0.24418991  0.96731451     0.36200
N1553       N  0.95057927  0.30851577  0.55855548    -0.38600
N1554       N  0.05153796  0.23183206  0.95381250    -0.38600
N1555       N  0.05750430  0.36091282  0.55641939    -0.38000
N1556       N  0.94283399  0.18365270  0.95183708    -0.38000
C1557       C  0.62736509  0.19007022  0.49987383    -0.04700
C1558       C  0.59955222  0.16930255  0.52041320    -0.01800
C1559       C  0.56634809  0.16910701  0.51923780     0.03200
C1560       C  0.56122539  0.19057598  0.49802506    -0.04700
C1561       C  0.59208861  0.21738059  0.97792394    -0.01800
C1562       C  0.62589221  0.21911098  0.97919066     0.03200
C1563       C  0.60531772  0.14895602  0.54341162     0.37800
C1564       C  0.58882216  0.24424850  0.96032098     0.37800
C1565       C  0.65743052  0.24968711  0.96524674     0.36200
C1566       C  0.53718463  0.14605423  0.53949156     0.36200
N1567       N  0.68248831  0.27424970  0.95430404    -0.38600
N1568       N  0.51396198  0.12762802  0.55562348    -0.38600
N1569       N  0.58634411  0.26546807  0.94592701    -0.38000
N1570       N  0.60966221  0.13311050  0.56223508    -0.38000
C1571       C  0.96847465  0.71034769  0.50032286    -0.04700
C1572       C  0.98957247  0.74716038  0.49089592    -0.01800
C1573       C  0.02815531  0.76487068  0.49073969     0.03200
C1574       C  0.04579568  0.74539499  0.49874260    -0.04700
C1575       C  0.02502372  0.70739759  0.00770030    -0.01800
C1576       C  0.98654716  0.69033907  0.00943957     0.03200
C1577       C  0.97162299  0.76708512  0.48198554     0.37800
C1578       C  0.04267202  0.68621542  0.01307146     0.37800
C1579       C  0.96512694  0.65257498  0.01923417     0.36200
C1580       C  0.04977457  0.80341565  0.48311846     0.36200
N1581       N  0.94794330  0.62247746  0.02710667    -0.38600
N1582       N  0.06712979  0.83421382  0.47719986    -0.38600
N1583       N  0.05684219  0.66924973  0.01664960    -0.38000
N1584       N  0.95736222  0.78299971  0.47472560    -0.38000
C1585       C  0.71634296  0.75081238  0.49740634    -0.04700
C1586       C  0.74446931  0.76034044  0.51840970    -0.01800
C1587       C  0.76351686  0.74082778  0.51997673     0.03200
C1588       C  0.75506938  0.71150288  0.50040346    -0.04700
C1589       C  0.72431206  0.69947732  0.98613188    -0.01800
C1590       C  0.70536378  0.71896352  0.98389887     0.03200
C1591       C  0.75518267  0.79148757  0.53769994     0.37800
C1592       C  0.71051443  0.66494732  0.97063156     0.37800
C1593       C  0.67348728  0.70481022  0.96504784     0.36200
C1594       C  0.79287477  0.75211581  0.54118165     0.36200
N1595       N  0.64823329  0.69349930  0.94978375    -0.38600
N1596       N  0.81627347  0.76124222  0.55814656    -0.38600
N1597       N  0.69916591  0.63721282  0.95852034    -0.38000
N1598       N  0.76395309  0.81646980  0.55297766    -0.38000
C1599       C  0.81533636  0.43924314  0.50472830    -0.04700
C1600       C  0.78109256  0.40672883  0.50722336    -0.01800
C1601       C  0.77898651  0.37256269  0.50615395     0.03200
C1602       C  0.81119380  0.37094193  0.50348239    -0.04700
C1603       C  0.84242428  0.40463790  0.98458736    -0.01800
C1604       C  0.84265594  0.43798613  0.98405982     0.03200
C1605       C  0.74803546  0.40838602  0.51120805     0.37800
C1606       C  0.87225600  0.40222191  0.97142290     0.37800
C1607       C  0.87250130  0.46983135  0.97005356     0.36200
C1608       C  0.74362452  0.33901631  0.50704193     0.36200
N1609       N  0.89640612  0.49501443  0.95870278    -0.38600
N1610       N  0.71553700  0.31219256  0.50753286    -0.38600
N1611       N  0.89607589  0.40036926  0.96091244    -0.38000
N1612       N  0.72174428  0.40969123  0.51480171    -0.38000
C1613       C  0.63512270  0.44028837  0.50163339    -0.04700
C1614       C  0.62672391  0.41286483  0.97687181    -0.01800
C1615       C  0.59271646  0.38032938  0.97712099     0.03200
C1616       C  0.56596337  0.37590310  0.50313610    -0.04700
C1617       C  0.57234716  0.40684169  0.51966931    -0.01800
C1618       C  0.60684508  0.43916186  0.51868314     0.03200
C1619       C  0.65431409  0.41602049  0.95624019     0.37800
C1620       C  0.54345840  0.40545336  0.53762190     0.37800
C1621       C  0.61304490  0.47156950  0.53458282     0.36200
C1622       C  0.58561680  0.35275860  0.95496250     0.36200
N1623       N  0.61807780  0.49755165  0.54709288    -0.38600
N1624       N  0.58020185  0.33134368  0.93688444    -0.38600
N1625       N  0.52049346  0.40427567  0.55210107    -0.38000
N1626       N  0.67600505  0.41811807  0.93971121    -0.38000
C1627       C  0.46302662  0.36494441  0.66126049    -0.04700
C1628       C  0.44375459  0.36689063  0.63650580    -0.01800
C1629       C  0.42751294  0.33758842  0.61625834     0.03200
C1630       C  0.42995633  0.30597808  0.62081540    -0.04700
C1631       C  0.44750012  0.30319946  0.64635252    -0.01800
C1632       C  0.46431740  0.33270929  0.66637476     0.03200
C1633       C  0.44148104  0.39957034  0.63142144     0.37800
C1634       C  0.44753517  0.26950926  0.65228996     0.37800
C1635       C  0.48189589  0.32938895  0.69266448     0.36200
C1636       C  0.40923652  0.34034122  0.59021221     0.36200
N1637       N  0.49588598  0.32673250  0.71365162    -0.38600
N1638       N  0.39454392  0.34234558  0.56942565    -0.38600
N1639       N  0.44707131  0.24244623  0.65730990    -0.38000
N1640       N  0.43970104  0.42565870  0.62742263    -0.38000
C1641       C  0.45874511  0.36739985  0.84334898    -0.04700
C1642       C  0.43621570  0.32974355  0.83674237    -0.01800
C1643       C  0.42184036  0.30363145  0.85964518     0.03200
C1644       C  0.42989104  0.31519431  0.88919002    -0.04700
C1645       C  0.45056653  0.35307221  0.89571549    -0.01800
C1646       C  0.46428068  0.37910277  0.87284652     0.03200
C1647       C  0.42824363  0.31784778  0.80632045     0.37800
C1648       C  0.45851561  0.36527002  0.92608085     0.37800
C1649       C  0.48188043  0.41789083  0.87963868     0.36200
C1650       C  0.40080992  0.26484604  0.85272468     0.36200
N1651       N  0.49477688  0.44872446  0.88509182    -0.38600
N1652       N  0.38409556  0.23389939  0.84718522    -0.38600
N1653       N  0.46513005  0.37499156  0.95027109    -0.38000
N1654       N  0.42179670  0.30846892  0.78204176    -0.38000
C1655       C  0.64557396  0.54832969  0.66265534    -0.04700
C1656       C  0.64851754  0.57240609  0.63955848    -0.01800
C1657       C  0.67743099  0.58552137  0.61905508     0.03200
C1658       C  0.70314711  0.57401829  0.62086370    -0.04700
C1659       C  0.70140746  0.55149217  0.64461465    -0.01800
C1660       C  0.67262708  0.53843546  0.66524699     0.03200
C1661       C  0.62096493  0.58264519  0.63586693     0.37800
C1662       C  0.72994201  0.54245966  0.64816750     0.37800
C1663       C  0.67153670  0.51557346  0.68949612     0.36200
C1664       C  0.68023110  0.61015504  0.59559136     0.36200
N1665       N  0.67075400  0.49731952  0.70881188    -0.38600
N1666       N  0.68268585  0.63006929  0.57704231    -0.38600
N1667       N  0.75292073  0.53558259  0.65098797    -0.38000
N1668       N  0.59919936  0.59109971  0.63273402    -0.38000
C1669       C  0.69554166  0.57647252  0.88952140    -0.04700
C1670       C  0.65982906  0.54627434  0.89402242    -0.01800
C1671       C  0.63473321  0.53171899  0.87049766     0.03200
C1672       C  0.64389984  0.54876534  0.84273132    -0.04700
C1673       C  0.67918176  0.57971994  0.83837472    -0.01800
C1674       C  0.70503579  0.59320825  0.86154525     0.03200
C1675       C  0.64839618  0.53053531  0.92319855     0.37800
C1676       C  0.68963643  0.59661268  0.80951467     0.37800
C1677       C  0.74185493  0.62304275  0.85603443     0.36200
C1678       C  0.59957396  0.49891626  0.87490811     0.36200
N1679       N  0.77124317  0.64678089  0.85149262    -0.38600
N1680       N  0.57192244  0.47224318  0.87847894    -0.38600
N1681       N  0.69793155  0.60999874  0.78646446    -0.38000
N1682       N  0.63888119  0.51813237  0.94644075    -0.38000
C1683       C  0.55102185  0.63339072  0.65732826    -0.04700
C1684       C  0.57559641  0.67073026  0.66378958    -0.01800
C1685       C  0.59133222  0.69662418  0.64087258     0.03200
C1686       C  0.58197883  0.68540470  0.61140175    -0.04700
C1687       C  0.55861739  0.64781826  0.60490157    -0.01800
C1688       C  0.54388588  0.62177927  0.62778360     0.03200
C1689       C  0.58421565  0.68265842  0.69415173     0.37800
C1690       C  0.54944303  0.63600202  0.57452910     0.37800
C1691       C  0.52362714  0.58297093  0.62083959     0.36200
C1692       C  0.61558043  0.73503930  0.64775711     0.36200
N1693       N  0.50857553  0.55206266  0.61509258    -0.38600
N1694       N  0.63500491  0.76566814  0.65328256    -0.38600
N1695       N  0.54204084  0.62665395  0.55031635    -0.38000
N1696       N  0.59110515  0.69211789  0.71837427    -0.38000
C1697       C  0.54780246  0.63607236  0.84313998    -0.04700
C1698       C  0.56256931  0.67364563  0.83668406    -0.01800
C1699       C  0.57712090  0.69995299  0.85945776     0.03200
C1700       C  0.57663510  0.68866103  0.88876993    -0.04700
C1701       C  0.56381912  0.65134753  0.89487408    -0.01800
C1702       C  0.54976945  0.62516205  0.87208468     0.03200
C1703       C  0.56240002  0.68513204  0.80662529     0.37800
C1704       C  0.56509755  0.63998393  0.92476688     0.37800
C1705       C  0.53744002  0.58698560  0.87837832     0.36200
C1706       C  0.59146115  0.73842588  0.85288565     0.36200
N1707       N  0.52775752  0.55656020  0.88335478    -0.38600
N1708       N  0.60310950  0.76914653  0.84757573    -0.38600
N1709       N  0.56646622  0.63113034  0.94862137    -0.38000
N1710       N  0.56216383  0.69423200  0.78263803    -0.38000
C1711       C  0.36865134  0.45812010  0.65967145    -0.04700
C1712       C  0.33421412  0.42543057  0.66189374    -0.01800
C1713       C  0.30821584  0.41498048  0.63901253     0.03200
C1714       C  0.31665423  0.43659021  0.61334301    -0.04700
C1715       C  0.35195387  0.46820258  0.61056145    -0.01800
C1716       C  0.37693925  0.47979432  0.63416808     0.03200
C1717       C  0.32440252  0.40350691  0.68852879     0.37800
C1718       C  0.36344680  0.48850263  0.58306654     0.37800
C1719       C  0.41093430  0.51451252  0.63228473     0.36200
C1720       C  0.27230178  0.38278885  0.64260191     0.36200
N1721       N  0.43747617  0.54274194  0.63090652    -0.38600
N1722       N  0.24365371  0.35711341  0.64554892    -0.38600
N1723       N  0.37300362  0.50485130  0.56126145    -0.38000
N1724       N  0.31650820  0.38596137  0.70974273    -0.38000
C1725       C  0.36509131  0.45504716  0.84027878    -0.04700
C1726       C  0.34185567  0.46995457  0.84057280    -0.01800
C1727       C  0.31317205  0.45761911  0.86137942     0.03200
C1728       C  0.30786998  0.43100482  0.88289753    -0.04700
C1729       C  0.33005695  0.41512395  0.88195934    -0.01800
C1730       C  0.35875697  0.42737693  0.86123308     0.03200
C1731       C  0.34662408  0.49735551  0.81900040     0.37800
C1732       C  0.32359986  0.38609213  0.90238625     0.37800
C1733       C  0.38245164  0.41200580  0.86256271     0.36200
C1734       C  0.28759636  0.47076986  0.85938868     0.36200
N1735       N  0.40085731  0.39917718  0.86385904    -0.38600
N1736       N  0.26692092  0.48087264  0.85750700    -0.38600
N1737       N  0.31839265  0.36239950  0.91811645    -0.38000
N1738       N  0.35042744  0.51932442  0.80189435    -0.38000
C1739       C  0.91693138  0.55230443  0.66344508    -0.04700
C1740       C  0.91447623  0.53764135  0.63520340    -0.01800
C1741       C  0.90290110  0.55027488  0.61116229     0.03200
C1742       C  0.89203347  0.57657476  0.61526339    -0.04700
C1743       C  0.89637621  0.59276965  0.64323026    -0.01800
C1744       C  0.90918184  0.58092714  0.66720948     0.03200
C1745       C  0.92418051  0.50967807  0.63079022     0.37800
C1746       C  0.88566201  0.61995199  0.64779644     0.37800
C1747       C  0.91245845  0.59684994  0.69610053     0.36200
C1748       C  0.90203685  0.53595824  0.58202589     0.36200
N1749       N  0.91499301  0.60959216  0.71912701    -0.38600
N1750       N  0.90130362  0.52453215  0.55878166    -0.38600
N1751       N  0.87704495  0.64160888  0.65140994    -0.38000
N1752       N  0.93179465  0.48725982  0.62743323    -0.38000
C1753       C  0.91124537  0.54552038  0.84382965    -0.04700
C1754       C  0.92106934  0.54667934  0.87361256    -0.01800
C1755       C  0.91187602  0.56539828  0.89445792     0.03200
C1756       C  0.88902978  0.57924147  0.88646910    -0.04700
C1757       C  0.87789822  0.57683919  0.85684030    -0.01800
C1758       C  0.89021813  0.56137367  0.83536704     0.03200
C1759       C  0.93816838  0.52620202  0.88311304     0.37800
C1760       C  0.85254434  0.58885648  0.84875116     0.37800
C1761       C  0.88033722  0.56074257  0.80472287     0.36200
C1762       C  0.92625904  0.57096237  0.92415429     0.36200
N1763       N  0.87243295  0.56024112  0.78026701    -0.38600
N1764       N  0.93832455  0.57637159  0.94770136    -0.38600
N1765       N  0.83203221  0.59815227  0.84247396    -0.38000
N1766       N  0.95050309  0.50860862  0.89067909    -0.38000
C1767       C  0.90956685  0.37016666  0.65905396    -0.04700
C1768       C  0.88566219  0.33389869  0.66856106    -0.01800
C1769       C  0.87081268  0.30482231  0.64804440     0.03200
C1770       C  0.87924378  0.31200773  0.61785991    -0.04700
C1771       C  0.90332292  0.34826764  0.60844932    -0.01800
C1772       C  0.91922642  0.37708816  0.62907274     0.03200
C1773       C  0.87670432  0.32656611  0.69955929     0.37800
C1774       C  0.91106261  0.35599468  0.57733848     0.37800
C1775       C  0.94587811  0.41377367  0.61941098     0.36200
C1776       C  0.84609831  0.26767231  0.65790459     0.36200
N1777       N  0.96738295  0.44283577  0.61145318    -0.38600
N1778       N  0.82650768  0.23807082  0.66596627    -0.38600
N1779       N  0.91699711  0.36200636  0.55248847    -0.38000
N1780       N  0.86970560  0.32099894  0.72432033    -0.38000
C1781       C  0.91138793  0.36370875  0.84135533    -0.04700
C1782       C  0.87512307  0.33461607  0.83806011    -0.01800
C1783       C  0.85995077  0.30598084  0.85894430     0.03200
C1784       C  0.88068448  0.30649433  0.88357332    -0.04700
C1785       C  0.91711426  0.33509639  0.88660511    -0.01800
C1786       C  0.93252318  0.36352831  0.86551507     0.03200
C1787       C  0.85368689  0.33351237  0.81275654     0.37800
C1788       C  0.93816295  0.33614263  0.91216632     0.37800
C1789       C  0.96984537  0.39331190  0.86934327     0.36200
C1790       C  0.82295643  0.27558338  0.85490795     0.36200
N1791       N  0.99962787  0.41700643  0.87241430    -0.38600
N1792       N  0.79352326  0.25125440  0.85167891    -0.38600
N1793       N  0.95483582  0.33693992  0.93262346    -0.38000
N1794       N  0.83657505  0.33263808  0.79258451    -0.38000
C1795       C  0.09567504  0.45746295  0.66018651    -0.04700
C1796       C  0.08847020  0.46155726  0.63061481    -0.01800
C1797       C  0.09874469  0.44580837  0.60802319     0.03200
C1798       C  0.11728638  0.42678500  0.61471128    -0.04700
C1799       C  0.12308810  0.42129826  0.64438398    -0.01800
C1800       C  0.11173833  0.43610681  0.66708589     0.03200
C1801       C  0.07025218  0.48180478  0.62347956     0.37800
C1802       C  0.14238466  0.40213812  0.65152191     0.37800
C1803       C  0.11723900  0.42996942  0.69757472     0.36200
C1804       C  0.09009598  0.44893337  0.57768014     0.36200
N1805       N  0.12163101  0.42498293  0.72188791    -0.38600
N1806       N  0.08290197  0.45079684  0.55342466    -0.38600
N1807       N  0.15787727  0.38693426  0.65719842    -0.38000
N1808       N  0.05581623  0.49807434  0.61789459    -0.38000
C1809       C  0.09253813  0.45039769  0.84160318    -0.04700
C1810       C  0.09570481  0.46361986  0.87050745    -0.01800
C1811       C  0.10622830  0.44850776  0.89351925     0.03200
C1812       C  0.11536913  0.42122491  0.88771066    -0.04700
C1813       C  0.11087270  0.40696892  0.85899507    -0.01800
C1814       C  0.09891478  0.42111714  0.83610790     0.03200
C1815       C  0.08743170  0.49228836  0.87674971     0.37800
C1816       C  0.12048682  0.37933668  0.85253769     0.37800
C1817       C  0.09457899  0.40643120  0.80660385     0.36200
C1818       C  0.10749624  0.46093567  0.92346453     0.36200
N1819       N  0.09096573  0.39451461  0.78312519    -0.38600
N1820       N  0.10833701  0.47050285  0.94742977    -0.38600
N1821       N  0.12819729  0.35734623  0.84722006    -0.38000
N1822       N  0.08087290  0.51517205  0.88175580    -0.38000
C1823       C  0.13445295  0.69353784  0.61848930    -0.04700
C1824       C  0.15551128  0.69081178  0.64152054    -0.01800
C1825       C  0.13861608  0.66403413  0.66377127     0.03200
C1826       C  0.10057728  0.63915726  0.66292334    -0.04700
C1827       C  0.07951233  0.64244915  0.64011746    -0.01800
C1828       C  0.09630316  0.67022289  0.61859523     0.03200
C1829       C  0.19457689  0.71642164  0.64293833     0.37800
C1830       C  0.04070657  0.61621623  0.63773634     0.37800
C1831       C  0.07427308  0.67450195  0.59631351     0.36200
C1832       C  0.16033347  0.66314278  0.68811141     0.36200
N1833       N  0.05648597  0.67824557  0.57893234    -0.38600
N1834       N  0.17768331  0.66264526  0.70759288    -0.38600
N1835       N  0.00978641  0.59530555  0.63556711    -0.38000
N1836       N  0.22571380  0.73683280  0.64407026    -0.38000
C1837       C  0.13156623  0.69182997  0.88721373    -0.04700
C1838       C  0.14924967  0.69435479  0.86024887    -0.01800
C1839       C  0.13371716  0.66504085  0.84004487     0.03200
C1840       C  0.10088350  0.63267965  0.84703872    -0.04700
C1841       C  0.08346617  0.63008891  0.87414311    -0.01800
C1842       C  0.09845209  0.65977559  0.89400126     0.03200
C1843       C  0.18332532  0.72744654  0.85316545     0.37800
C1844       C  0.05084591  0.59621891  0.88213530     0.37800
C1845       C  0.08031323  0.65699036  0.92172887     0.36200
C1846       C  0.15079196  0.66872925  0.81164383     0.36200
N1847       N  0.06570448  0.65479851  0.94375695    -0.38600
N1848       N  0.16422216  0.67162620  0.78890414    -0.38600
N1849       N  0.02516454  0.56901004  0.88881195    -0.38000
N1850       N  0.21048797  0.75389065  0.84759335    -0.38000
C1851       C  0.36656995  0.90475506  0.66107499    -0.04700
C1852       C  0.37886578  0.91611568  0.63211303    -0.01800
C1853       C  0.35359024  0.90490310  0.60874560     0.03200
C1854       C  0.31577315  0.88244078  0.61420464    -0.04700
C1855       C  0.30337781  0.87198693  0.64335636    -0.01800
C1856       C  0.32874113  0.88346109  0.66677700     0.03200
C1857       C  0.41754162  0.94008763  0.62643812     0.37800
C1858       C  0.26479977  0.84751396  0.64903583     0.37800
C1859       C  0.31597762  0.87281748  0.69672492     0.36200
C1860       C  0.36671352  0.91576335  0.57888596     0.36200
N1861       N  0.30576195  0.86430993  0.72061440    -0.38600
N1862       N  0.37761533  0.92449813  0.55517983    -0.38600
N1863       N  0.23404766  0.82780252  0.65350957    -0.38000
N1864       N  0.44830216  0.95967560  0.62193210    -0.38000
C1865       C  0.37189664  0.91073398  0.84666036    -0.04700
C1866       C  0.33512367  0.89981700  0.84030270    -0.01800
C1867       C  0.30955208  0.88990631  0.86325327     0.03200
C1868       C  0.32097334  0.89227825  0.89268098    -0.04700
C1869       C  0.35833483  0.90669356  0.89908220    -0.01800
C1870       C  0.38359941  0.91469235  0.87614954     0.03200
C1871       C  0.32339438  0.89807509  0.81003070     0.37800
C1872       C  0.37059839  0.91432633  0.92941871     0.37800
C1873       C  0.42158759  0.92737783  0.88284222     0.36200
C1874       C  0.27135354  0.87597247  0.85649570     0.36200
N1875       N  0.45187252  0.93728870  0.88810953    -0.38600
N1876       N  0.24088498  0.86491683  0.85108233    -0.38600
N1877       N  0.37999833  0.92092275  0.95368891    -0.38000
N1878       N  0.31413764  0.89696188  0.78589852    -0.38000
C1879       C  0.54553014  0.90184688  0.66189302    -0.04700
C1880       C  0.57511558  0.89588793  0.66699565    -0.01800
C1881       C  0.58833190  0.88284691  0.64423397     0.03200
C1882       C  0.57276212  0.87641371  0.61585860    -0.04700
C1883       C  0.54407740  0.88363816  0.61049157    -0.01800
C1884       C  0.52986277  0.89520859  0.63355142     0.03200
C1885       C  0.59126304  0.90192426  0.69610152     0.37800
C1886       C  0.53014578  0.88066616  0.58079939     0.37800
C1887       C  0.49932128  0.90064214  0.62793957     0.36200
C1888       C  0.61695285  0.87463716  0.65043484     0.36200
N1889       N  0.47463000  0.90445290  0.62337697    -0.38600
N1890       N  0.63974295  0.86800974  0.65540697    -0.38600
N1891       N  0.51943205  0.87892382  0.55706516    -0.38000
N1892       N  0.60416678  0.90679490  0.71931580    -0.38000
C1893       C  0.54309194  0.90286887  0.84435870    -0.04700
C1894       C  0.53546091  0.86647733  0.84085026    -0.01800
C1895       C  0.54577493  0.84985118  0.86289948     0.03200
C1896       C  0.56400842  0.86949879  0.88861069    -0.04700
C1897       C  0.57228483  0.90605738  0.89189660    -0.01800
C1898       C  0.56191211  0.92272142  0.86988882     0.03200
C1899       C  0.51832760  0.84656651  0.81400679     0.37800
C1900       C  0.59032972  0.92607667  0.91846935     0.37800
C1901       C  0.56963431  0.96001113  0.87403442     0.36200
C1902       C  0.53810893  0.81256524  0.85887919     0.36200
N1903       N  0.57580411  0.98975681  0.87731985    -0.38600
N1904       N  0.53201218  0.78284098  0.85564750    -0.38600
N1905       N  0.60467726  0.94194134  0.93972041    -0.38000
N1906       N  0.50483969  0.83079079  0.79251517    -0.38000
C1907       C  0.63486908  0.08629199  0.65908442    -0.04700
C1908       C  0.62409101  0.07875653  0.62937715    -0.01800
C1909       C  0.65076434  0.09068247  0.60712985     0.03200
C1910       C  0.68817160  0.11150331  0.61442917    -0.04700
C1911       C  0.69898398  0.11707407  0.64420439    -0.01800
C1912       C  0.67231964  0.10420998  0.66654318     0.03200
C1913       C  0.58561358  0.05895941  0.62173221     0.37800
C1914       C  0.73744465  0.13725270  0.65181229     0.37800
C1915       C  0.68339039  0.11040729  0.69721527     0.36200
C1916       C  0.63994856  0.08125743  0.57662416     0.36200
N1917       N  0.69212401  0.11532348  0.72169838    -0.38600
N1918       N  0.63152793  0.07348616  0.55228366    -0.38600
N1919       N  0.76814627  0.15319610  0.65787387    -0.38000
N1920       N  0.55490607  0.04333876  0.61565940    -0.38000
C1921       C  0.68783024  0.11504231  0.89028808    -0.04700
C1922       C  0.69660812  0.10536569  0.86311298    -0.01800
C1923       C  0.67046304  0.09125606  0.84023591     0.03200
C1924       C  0.63597878  0.08853956  0.84378395    -0.04700
C1925       C  0.62695766  0.09747898  0.87113226    -0.01800
C1926       C  0.65230398  0.10950717  0.89453276     0.03200
C1927       C  0.73314245  0.11198837  0.85784383     0.37800
C1928       C  0.59130857  0.09358803  0.87550813     0.37800
C1929       C  0.64137104  0.11534888  0.92332604     0.36200
C1930       C  0.67977704  0.08083891  0.81259599     0.36200
N1931       N  0.63228663  0.11945505  0.94630327    -0.38600
N1932       N  0.68707409  0.07223740  0.79064746    -0.38600
N1933       N  0.56298476  0.09072323  0.87902898    -0.38000
N1934       N  0.76230242  0.11742803  0.85337772    -0.38000
C1935       C  0.43489946  0.12493525  0.61858064    -0.04700
C1936       C  0.46430475  0.14590045  0.63820813    -0.01800
C1937       C  0.47472085  0.12850859  0.65945168     0.03200
C1938       C  0.45666628  0.08982972  0.66092292    -0.04700
C1939       C  0.42698094  0.06897384  0.64139039    -0.01800
C1940       C  0.41545255  0.08647969  0.62117026     0.03200
C1941       C  0.48352170  0.18570402  0.63735802     0.37800
C1942       C  0.40854776  0.02927834  0.64094447     0.37800
C1943       C  0.38363810  0.06452592  0.60287907     0.36200
C1944       C  0.50327625  0.15082915  0.68042395     0.36200
N1945       N  0.35774607  0.04660591  0.58894476    -0.38600
N1946       N  0.52593881  0.16879730  0.69715713    -0.38600
N1947       N  0.39310361  0.99758248  0.64024435    -0.38000
N1948       N  0.49919761  0.21742749  0.63671070    -0.38000
C1949       C  0.46055700  0.09570646  0.83997924    -0.04700
C1950       C  0.44343626  0.07738975  0.86644026    -0.01800
C1951       C  0.42918990  0.09278502  0.88621942     0.03200
C1952       C  0.43212141  0.12682034  0.87995261    -0.04700
C1953       C  0.44924851  0.14521831  0.85350381    -0.01800
C1954       C  0.46374025  0.12994595  0.83375760     0.03200
C1955       C  0.44259778  0.04369732  0.87424593     0.37800
C1956       C  0.45200896  0.18007920  0.84667764     0.37800
C1957       C  0.48205608  0.14960131  0.80715545     0.36200
C1958       C  0.41296652  0.07441659  0.91376786     0.36200
N1959       N  0.49699296  0.16551950  0.78609207    -0.38600
N1960       N  0.40002202  0.05988909  0.93578736    -0.38600
N1961       N  0.45399651  0.20777665  0.84120589    -0.38000
N1962       N  0.44240889  0.01708314  0.88056358    -0.38000
loop_ 
_geom_bond_atom_site_label_1 
_geom_bond_atom_site_label_2 
_geom_bond_distance 
_geom_bond_site_symmetry_2 
_ccdc_geom_bond_type 
C1           N19   1.363       .  A
C1           C38   1.449       .  S
C1          C968   1.499       .  S
N2           N19   1.333       .  A
N2           N24   1.318       .  A
N2          Co39   2.126       .  S
C3           N28   1.349       .  A
C3           C41   1.469       .  S
C3           H48   1.081       .  S
H4           C45   1.081       .  S
C5           N29   1.337       .  A
C5            C9   1.454       .  S
C5           H34   1.081       .  S
Co6          N24   2.058   1_565  S
Co6          N14   2.041       .  S
Co6          N46   2.045   1_565  S
Co6          N22   2.058       .  S
Co6         Cl50   2.425   1_565  S
N7           C45   1.351       .  A
N7           N14   1.320       .  A
N7           Co8   2.118       .  S
Co8          N11   2.102       .  S
Co8          N28   2.111       .  S
Co8          N15   2.127       .  S
Co8         Cl50   2.481   1_565  S
C9           N47   1.356       .  A
C9          C912   1.490       .  S
N10          N17   1.321       .  A
N10          N40   1.320       .  A
N10         Co43   2.063       .  S
N11          N29   1.320       .  A
N11          N47   1.328       .  A
N12          C41   1.338       .  A
N12          N22   1.319       .  A
H13          C38   1.081       .  S
N14          N35   1.316       .  A
N15          N33   1.320       .  A
N15          N20   1.333       .  A
C16          N20   1.362       .  A
C16          C44   1.447       .  S
C16         C898   1.495       .  S
N17          C32   1.352       .  A
N17         Co39   2.124       .  S
C18          N46   1.331       .  A
C18          C21   1.452       .  S
C18          H52   1.077       .  S
C21          N42   1.364       .  A
C21         C957   1.504       .  S
N22          N28   1.321       .  A
N23          C49   1.350       .  A
N23          N25   1.321       .  A
N23         Co39   2.118       .  S
N24          C38   1.335       .  A
N25          N53   1.322       .  A
N25         Co43   2.064       .  S
H26          C49   1.081       .  S
H27          C44   1.081       .  S
N29         Co43   2.073   1_565  S
N30          N42   1.330       .  A
N30          N46   1.316       .  A
N30         Co39   2.126       .  S
C31          N35   1.336       .  A
C31          C45   1.472       .  S
C31         C884   1.476       .  S
C32          C51   1.475       .  S
C32          H36   1.081       .  S
N33          C44   1.334       .  A
N33         Co43   2.061   1_565  S
C37          N53   1.341       .  A
C37          C49   1.470       .  S
C37         C926   1.484       .  S
Co39        Cl50   2.477       .  S
N40          C51   1.341       .  A
C41         C870   1.477       .  S
Co43        Cl50   2.425       .  S
C51         C943   1.491       .  S
C54          N72   1.359       .  A
C54          C91   1.446       .  S
C54         C859   1.486       .  S
N55          N72   1.329       .  A
N55          N77   1.320       .  A
N55         Co92   2.114       .  S
C56          N81   1.349       .  A
C56          C94   1.473       .  S
C56         H101   1.081       .  S
H57          C98   1.081       .  S
C58          N82   1.333       .  A
C58          C62   1.443       .  S
C58          H87   1.081       .  S
Co59         N77   2.055       .  S
Co59         N67   2.061   1_455  S
Co59         N99   2.061       .  S
Co59         N75   2.057   1_455  S
Co59       Cl103   2.426       .  S
N60          C98   1.348       .  A
N60          N67   1.321       .  A
N60         Co61   2.111       .  S
Co61         N64   2.121       .  S
Co61         N81   2.117       .  S
Co61         N68   2.107       .  S
Co61       Cl103   2.478   1_655  S
C62         N100   1.360       .  A
C62         C800   1.486       .  S
N63          N70   1.320       .  A
N63          N93   1.319       .  A
N63         Co96   2.052       .  S
N64          N82   1.320       .  A
N64         N100   1.332       .  A
N65          C94   1.341       .  A
N65          N75   1.320       .  A
H66          C91   1.081       .  S
N67          N88   1.320       .  A
N68          N86   1.320       .  A
N68          N73   1.329       .  A
C69          N73   1.355       .  A
C69          C97   1.442       .  S
C69         C786   1.474       .  S
N70          C85   1.349       .  A
N70         Co92   2.117       .  S
C71          N99   1.333       .  A
C71          C74   1.451       .  S
C71         H105   1.081       .  S
C74          N95   1.361       .  A
C74         C845   1.497       .  S
N75          N81   1.320       .  A
N76         C102   1.349       .  A
N76          N78   1.320       .  A
N76         Co92   2.116       .  S
N77          C91   1.333       .  A
N78         N106   1.320       .  A
N78         Co96   2.056       .  S
H79         C102   1.081       .  S
H80          C97   1.081       .  S
N82         Co96   2.055   1_655  S
N83          N95   1.331       .  A
N83          N99   1.319       .  A
N83         Co92   2.118       .  S
C84          N88   1.341       .  A
C84          C98   1.471       .  S
C84         C772   1.485       .  S
C85         C104   1.472       .  S
C85          H89   1.081       .  S
N86          C97   1.333       .  A
N86         Co96   2.058   1_655  S
C90         N106   1.340       .  A
C90         C102   1.472       .  S
C90         C814   1.484       .  S
Co92       Cl103   2.476       .  S
N93         C104   1.339       .  A
C94         C758   1.489       .  S
Co96       Cl103   2.426       .  S
C104        C828   1.483       .  S
C107        N125   1.365       .  A
C107        C144   1.455       .  S
C107        C744   1.511       .  S
N108        N125   1.333       .  A
N108        N130   1.318       .  A
N108       Co145   2.130       .  S
C109        N134   1.350       .  A
C109        C147   1.474       .  S
C109        H154   1.081       .  S
H110        C151   1.081       .  S
C111        N135   1.331       .  A
C111        C115   1.443       .  S
C111        H140   1.081       .  S
Co112       N130   2.067       .  S
Co112       N120   2.058       .  S
Co112       N152   2.059       .  S
Co112       N128   2.057       .  S
Co112      Cl156   2.420       .  S
N113        C151   1.349       .  A
N113        N120   1.322       .  A
N113       Co114   2.112       .  S
Co114       N117   2.128       .  S
Co114       N134   2.121       .  S
Co114       N121   2.120       .  S
Co114      Cl156   2.486       .  S
C115        N153   1.362       .  A
C115        C691   1.489       .  S
N116        N123   1.321       .  A
N116        N146   1.320       .  A
N116       Co149   2.057       .  S
N117        N135   1.319       .  A
N117        N153   1.334       .  A
N118        C147   1.340       .  A
N118        N128   1.320       .  A
H119        C144   1.080       .  S
N120        N141   1.319       .  A
N121        N139   1.319       .  A
N121        N126   1.332       .  A
C122        N126   1.362       .  A
C122        C150   1.451       .  S
C122        C674   1.499       .  S
N123        C138   1.349       .  A
N123       Co145   2.112       .  S
C124        N152   1.334       .  A
C124        C127   1.451       .  S
C124        H158   1.081       .  S
C127        N148   1.360       .  A
C127        C730   1.495       .  S
N128        N134   1.321       .  A
N129        C155   1.351       .  A
N129        N131   1.321       .  A
N129       Co145   2.121       .  S
N130        C144   1.335       .  A
N131        N159   1.318       .  A
N131       Co149   2.052       .  S
H132        C155   1.081       .  S
H133        C150   1.081       .  S
N135       Co149   2.049       .  S
N136        N148   1.332       .  A
N136        N152   1.318       .  A
N136       Co145   2.117       .  S
C137        N141   1.338       .  A
C137        C151   1.469       .  S
C137        C660   1.476       .  S
C138        C157   1.469       .  S
C138        H142   1.081       .  S
N139        C150   1.334       .  A
N139       Co149   2.064       .  S
C143        N159   1.337       .  A
C143        C155   1.473       .  S
C143        C702   1.482       .  S
Co145      Cl156   2.486       .  S
N146        C157   1.339       .  A
C147        C646   1.488       .  S
Co149      Cl156   2.418       .  S
C157        C716   1.478       .  S
C160        N178   1.345   1_556  A
C160        C618   1.465       .  S
C160       C1178   1.456       .  S
N161        N178   1.318       .  A
N161       N1164   1.314   1_554  A
N161       Co198   2.057       .  S
C162        N187   1.349       .  A
C162        C200   1.474       .  S
C162        H207   1.081       .  S
H163        C204   1.081       .  S
C164        N188   1.345       .  A
C164       C1149   1.462       .  S
C164        H193   1.081       .  S
Co165       N183   2.073       .  S
Co165       N173   2.049       .  S
Co165       N205   2.056       .  S
Co165       N181   2.056       .  S
Co165     Cl1190   2.431       .  S
N166        C204   1.353       .  A
N166        N173   1.320       .  A
N166       Co167   2.123       .  S
Co167       N170   2.099       .  S
Co167       N187   2.105       .  S
Co167       N174   2.112       .  S
Co167     Cl1190   2.467       .  S
C168        N206   1.350       .  A
C168       C1145   1.460       .  S
C168       C1571   1.488       .  S
N169        N176   1.317       .  A
N169        N199   1.334       .  A
N169       Co202   2.126       .  S
N170        N206   1.327       .  A
N170       N1169   1.325       .  A
N171        C200   1.341       .  A
N171        N181   1.317       .  A
H172        C197   1.081       .  S
N173        N194   1.316       .  A
N174        N179   1.329       .  A
N174       N1173   1.325       .  A
C175       N1160   1.352   1_554  A
C175        C203   1.466       .  S
C175        C607   1.500       .  S
N176        C191   1.326       .  A
N176       Co198   2.041       .  S
C177        N205   1.333       .  A
C177       C1161   1.454       .  S
C177        H211   1.081       .  S
N179       C1156   1.355       .  A
C180        N201   1.349   1_556  A
C180        C632   1.478       .  S
C180       C1158   1.457       .  S
N181        N187   1.319       .  A
N182        C208   1.331       .  A
N182        N184   1.320       .  A
N182       Co198   2.050       .  S
N183        C197   1.338       .  A
N183       N1142   1.314       .  A
N184        N212   1.334       .  A
N184       Co202   2.131       .  S
H185        C208   1.082       .  S
H186        C203   1.082       .  S
N188       N1151   1.325   1_554  A
N188       Co202   2.107       .  S
N189        N201   1.322       .  A
N189       N1186   1.314   1_554  A
N189       Co198   2.062       .  S
C190        N194   1.339       .  A
C190        C204   1.478       .  S
C190        C775   1.490       .  S
C191        C210   1.444       .  S
C191        H195   1.081       .  S
N192        C203   1.347       .  A
N192       N1155   1.326   1_554  A
N192       Co202   2.114       .  S
C196        N212   1.362       .  A
C196        C208   1.445       .  S
C196        C677   1.490       .  S
C197       C1141   1.459       .  S
Co198      Cl209   2.439       .  S
N199        C210   1.364       .  A
C200        C688   1.487       .  S
Co202      Cl209   2.460       .  S
N205       N1170   1.314       .  A
Cl209     Co1146   2.430   1_554  S
Cl209     Co1148   2.465   1_554  S
C210        C761   1.493       .  S
C213        N231   1.349   1_556  A
C213        C576   1.469       .  S
C213       C1231   1.453       .  S
N214        N231   1.323       .  A
N214       N1217   1.314   1_554  A
N214       Co251   2.069       .  S
C215        N240   1.350       .  A
C215        C253   1.471       .  S
C215        H260   1.081       .  S
H216        C257   1.082       .  S
C217        N241   1.341       .  A
C217       C1202   1.465       .  S
C217        H246   1.080       .  S
Co218       N236   2.049       .  S
Co218       N226   2.046       .  S
Co218       N258   2.069       .  S
Co218       N234   2.049       .  S
Co218     Cl1243   2.425       .  S
N219        C257   1.354       .  A
N219        N226   1.318       .  A
N219       Co220   2.130       .  S
Co220       N223   2.103       .  S
Co220       N240   2.112       .  S
Co220       N227   2.116       .  S
Co220     Cl1243   2.463       .  S
C221        N259   1.354       .  A
C221        C548   1.497       .  S
C221       C1198   1.461       .  S
N222        N229   1.319       .  A
N222        N252   1.332       .  A
N222       Co255   2.126       .  S
N223        N259   1.327       .  A
N223       N1222   1.322       .  A
N224        C253   1.339       .  A
N224        N234   1.318       .  A
H225        C250   1.081       .  S
N226        N247   1.317       .  A
N227        N232   1.330       .  A
N227       N1226   1.325       .  A
C228       N1213   1.355   1_554  A
C228        C256   1.467       .  S
C228        C562   1.507       .  S
N229        C244   1.333       .  A
N229       Co251   2.056       .  S
C230        N258   1.337       .  A
C230       C1214   1.455       .  S
C230        H264   1.081       .  S
N232       C1209   1.356       .  A
C233        N254   1.346   1_556  A
C233        C621   1.464       .  S
C233       C1211   1.455       .  S
N234        N240   1.319       .  A
N235        C261   1.333       .  A
N235        N237   1.318       .  A
N235       Co251   2.059       .  S
N236        C250   1.330       .  A
N236       N1195   1.312       .  A
N237        N265   1.330       .  A
N237       Co255   2.105       .  S
H238        C261   1.082       .  S
H239        C256   1.081       .  S
N241       N1204   1.321   1_554  A
N241       Co255   2.089       .  S
N242        N254   1.318       .  A
N242       N1239   1.315   1_554  A
N242       Co251   2.059       .  S
C243        N247   1.338       .  A
C243        C257   1.482       .  S
C243        C940   1.492       .  S
C244        C263   1.445       .  S
C244        H248   1.081       .  S
N245        C256   1.345       .  A
N245       N1208   1.325   1_554  A
N245       Co255   2.112       .  S
C249        N265   1.356       .  A
C249        C261   1.445       .  S
C249        C789   1.478       .  S
C250       C1194   1.452       .  S
Co251      Cl262   2.438       .  S
N252        C263   1.361       .  A
C253        C803   1.481       .  S
Co255      Cl262   2.460       .  S
N258       N1223   1.316       .  A
Cl262     Co1199   2.433   1_554  S
Cl262     Co1201   2.458   1_554  S
C263        C929   1.484       .  S
C266        N284   1.344       .  A
C266        C534   1.480       .  S
C266       C1284   1.465   1_554  S
N267        N284   1.315       .  A
N267       N1270   1.311   1_554  A
N267       Co304   2.055       .  S
C268        N293   1.351       .  A
C268        C306   1.473       .  S
C268        H313   1.081       .  S
H269        C310   1.081       .  S
C270        N294   1.346       .  A
C270       C1255   1.465       .  S
C270        H299   1.081       .  S
Co271       N289   2.058       .  S
Co271       N279   2.046       .  S
Co271       N311   2.056       .  S
Co271       N287   2.051       .  S
Co271     Cl1296   2.446       .  S
N272        C310   1.349       .  A
N272        N279   1.320       .  A
N272       Co273   2.109       .  S
Co273       N276   2.105       .  S
Co273       N293   2.116       .  S
Co273       N280   2.097       .  S
Co273     Cl1296   2.458       .  S
C274        N312   1.353       .  A
C274        C506   1.494       .  S
C274       C1251   1.460       .  S
N275        N282   1.317       .  A
N275        N305   1.331       .  A
N275       Co308   2.110       .  S
N276        N312   1.329       .  A
N276       N1275   1.324       .  A
N277        C306   1.339       .  A
N277        N287   1.317       .  A
H278        C303   1.081       .  S
N279        N300   1.316       .  A
N280        N285   1.327       .  A
N280       N1279   1.325       .  A
C281       N1266   1.351   1_554  A
C281        C309   1.462       .  S
C281        C593   1.493   1_554  S
N282        C297   1.328       .  A
N282       Co304   2.042       .  S
C283        N311   1.335       .  A
C283       C1267   1.452       .  S
C283        H317   1.081       .  S
N285       C1262   1.350       .  A
C286        N307   1.345   1_556  A
C286        C520   1.458       .  S
C286       C1264   1.452       .  S
N287        N293   1.320       .  A
N288        C314   1.330       .  A
N288        N290   1.318       .  A
N288       Co304   2.050       .  S
N289        C303   1.340       .  A
N289       N1248   1.312       .  A
N290        N318   1.334       .  A
N290       Co308   2.126       .  S
H291        C314   1.082       .  S
H292        C309   1.081       .  S
N294       N1257   1.323   1_554  A
N294       Co308   2.109       .  S
N295        N307   1.321       .  A
N295       N1292   1.315   1_554  A
N295       Co304   2.065       .  S
C296        N300   1.338       .  A
C296        C310   1.470       .  S
C296        C887   1.473       .  S
C297        C316   1.439       .  S
C297        H301   1.081       .  S
N298        C309   1.344       .  A
N298       N1261   1.325   1_554  A
N298       Co308   2.108       .  S
C302        N318   1.363       .  A
C302        C314   1.446       .  S
C302        C842   1.494       .  S
C303       C1247   1.462       .  S
Co304      Cl315   2.416       .  S
N305        C316   1.359       .  A
C306        C856   1.483       .  S
Co308      Cl315   2.464       .  S
N311       N1276   1.316       .  A
Cl315     Co1252   2.449   1_554  S
Cl315     Co1254   2.454   1_554  S
C316        C873   1.475       .  S
C319        N337   1.359       .  A
C319        C356   1.446       .  S
C319        C915   1.486       .  S
N320        N337   1.332       .  A
N320        N342   1.320       .  A
N320       Co357   2.121       .  S
C321        N346   1.336       .  A
C321        C359   1.461       .  S
C321        H366   1.082       .  S
H322        C363   1.080       .  S
C323        N347   1.352       .  A
C323        C327   1.478       .  S
C323        H352   1.081       .  S
Co324       N342   2.056       .  S
Co324       N332   2.062       .  S
Co324       N364   2.051       .  S
Co324       N340   2.061       .  S
Co324     Cl1349   2.442       .  S
N325        C363   1.330       .  A
N325       N1313   1.314   1_554  A
N325       Co326   2.047       .  S
Co326       N329   2.060       .  S
Co326       N346   2.067       .  S
Co326       N333   2.038       .  S
Co326      Cl368   2.427       .  S
C327        N365   1.342       .  A
C327        C901   1.496       .  S
N328        N358   1.328       .  A
N328       N1316   1.324   1_554  A
N328       Co361   2.107       .  S
N329        N347   1.318       .  A
N329        N365   1.320       .  A
N330       C1340   1.347       .  A
N330        N340   1.321       .  A
H331        C356   1.082       .  S
N332        N353   1.319       .  A
N332       N1306   1.314       .  A
N333        N351   1.318       .  A
N333        N338   1.314       .  A
C334        N338   1.337       .  A
C334        C362   1.476       .  S
C334        C705   1.481       .  S
N335        C350   1.342       .  A
N335       N1309   1.324       .  A
N335       Co357   2.099       .  S
C336        N364   1.330       .  A
C336        C339   1.441       .  S
C336        H370   1.082       .  S
C339        N360   1.358       .  A
C339        C719   1.476       .  S
N340       N1327   1.314       .  A
N341        C367   1.344       .  A
N341       N1324   1.324       .  A
N341       Co357   2.106       .  S
N342        C356   1.332       .  A
N343        N371   1.328       .  A
N343       N1322   1.324   1_554  A
N343       Co361   2.104       .  S
H344        C367   1.081       .  S
H345        C362   1.081       .  S
N346       N1321   1.314   1_554  A
N347       Co361   2.118       .  S
N348        N360   1.332       .  A
N348        N364   1.320       .  A
N348       Co357   2.115       .  S
C349       N1334   1.349   1_554  A
C349        C363   1.451       .  S
C349        C537   1.470       .  S
C350        C369   1.462       .  S
C350        H354   1.082       .  S
N351        C362   1.353       .  A
N351       Co361   2.120       .  S
N353       C1330   1.348       .  A
C355        N371   1.353   1_556  A
C355        C604   1.503   1_556  S
C355       C1348   1.467       .  S
Co357     Cl1349   2.458       .  S
N358       C1350   1.354       .  A
C359       N1311   1.347   1_554  A
C359        C492   1.472       .  S
Co361      Cl368   2.467       .  S
C367       C1336   1.468       .  S
Cl368     Co1305   2.445   1_554  S
Cl368     Co1338   2.455   1_554  S
C369       N1339   1.351       .  A
C369        C551   1.493       .  S
C372        N390   1.348   1_556  A
C372        C523   1.463       .  S
C372       C1390   1.456       .  S
N373        N390   1.320       .  A
N373       N1376   1.314   1_554  A
N373       Co410   2.061       .  S
C374        N399   1.354       .  A
C374        C412   1.482       .  S
C374        H419   1.081       .  S
H375        C416   1.081       .  S
C376        N400   1.342       .  A
C376       C1361   1.462       .  S
C376        H405   1.081       .  S
Co377       N395   2.063       .  S
Co377       N385   2.041       .  S
Co377       N417   2.057       .  S
Co377       N393   2.053       .  S
Co377     Cl1402   2.436       .  S
N378        C416   1.352       .  A
N378        N385   1.319       .  A
N378       Co379   2.115       .  S
Co379       N382   2.120       .  S
Co379       N399   2.132       .  S
Co379       N386   2.115       .  S
Co379     Cl1402   2.460       .  S
C380        N418   1.357       .  A
C380       C1357   1.463       .  S
C380       C1546   1.507       .  S
N381        N388   1.317       .  A
N381        N411   1.334       .  A
N381       Co414   2.126       .  S
N382        N418   1.330       .  A
N382       N1381   1.324       .  A
N383        C412   1.341       .  A
N383        N393   1.318       .  A
H384        C409   1.082       .  S
N385        N406   1.315       .  A
N386        N391   1.329       .  A
N386       N1385   1.325       .  A
C387       N1372   1.353   1_554  A
C387        C415   1.458       .  S
C387        C481   1.492       .  S
N388        C403   1.327       .  A
N388       Co410   2.040       .  S
C389        N417   1.337       .  A
C389       C1373   1.456       .  S
C389        H423   1.081       .  S
N391       C1368   1.354       .  A
C392        N413   1.342       .  A
C392        C495   1.468       .  S
C392       C1370   1.458   1_554  S
N393        N399   1.320       .  A
N394        C420   1.329       .  A
N394        N396   1.317       .  A
N394       Co410   2.051       .  S
N395        C409   1.336       .  A
N395       N1354   1.313       .  A
N396        N424   1.334       .  A
N396       Co414   2.126       .  S
H397        C420   1.081       .  S
H398        C415   1.081       .  S
N400       N1363   1.325   1_554  A
N400       Co414   2.099       .  S
N401        N413   1.317       .  A
N401       N1398   1.315   1_554  A
N401       Co410   2.052       .  S
C402        N406   1.337       .  A
C402        C416   1.476       .  S
C402        C831   1.482       .  S
C403        C422   1.445       .  S
C403        H407   1.082       .  S
N404        C415   1.344       .  A
N404       N1367   1.326   1_554  A
N404       Co414   2.100       .  S
C408        N424   1.365       .  A
C408        C420   1.448       .  S
C408        C733   1.500       .  S
C409       C1353   1.457       .  S
Co410      Cl421   2.434       .  S
N411        C422   1.363       .  A
C412        C747   1.502       .  S
Co414      Cl421   2.466       .  S
N417       N1382   1.314       .  A
Cl421     Co1358   2.440   1_554  S
Cl421     Co1360   2.460   1_554  S
C422        C817   1.491       .  S
C425        N443   1.362       .  A
C425        C462   1.443       .  S
C425        C971   1.490       .  S
N426        N443   1.334       .  A
N426        N448   1.319       .  A
N426       Co463   2.126       .  S
C427        N452   1.340       .  A
C427        C465   1.463       .  S
C427        H472   1.081       .  S
H428        C469   1.082       .  S
C429        N453   1.351       .  A
C429        C433   1.478       .  S
C429        H458   1.081       .  S
Co430       N448   2.052       .  S
Co430       N438   2.059       .  S
Co430       N470   2.042       .  S
Co430       N446   2.068       .  S
Co430     Cl1455   2.424       .  S
N431        C469   1.337       .  A
N431       N1419   1.314   1_554  A
N431       Co432   2.060       .  S
Co432       N435   2.054       .  S
Co432       N452   2.063       .  S
Co432       N439   2.056       .  S
Co432      Cl474   2.444   1_554  S
C433        N471   1.342       .  A
C433        C954   1.498       .  S
N434        N464   1.328       .  A
N434       N1422   1.326   1_554  A
N434       Co467   2.111       .  S
N435        N453   1.318       .  A
N435        N471   1.316       .  A
N436       C1446   1.348       .  A
N436        N446   1.320       .  A
H437        C462   1.082       .  S
N438        N459   1.318       .  A
N438       N1412   1.313       .  A
N439        N457   1.321       .  A
N439        N444   1.318       .  A
C440        N444   1.340       .  A
C440        C468   1.474       .  S
C440        C649   1.485       .  S
N441        C456   1.343       .  A
N441       N1415   1.325       .  A
N441       Co463   2.099       .  S
C442        N470   1.327       .  A
C442        C445   1.441       .  S
C442        H476   1.082       .  S
C445        N466   1.358       .  A
C445        C663   1.476       .  S
N446       N1433   1.313       .  A
N447        C473   1.344       .  A
N447       N1430   1.325       .  A
N447       Co463   2.106       .  S
N448        C462   1.332       .  A
N449        N477   1.328       .  A
N449       N1428   1.324   1_554  A
N449       Co467   2.104       .  S
H450        C473   1.081       .  S
H451        C468   1.081       .  S
N452       N1427   1.312   1_554  A
N453       Co467   2.112       .  S
N454        N466   1.331       .  A
N454        N470   1.318       .  A
N454       Co463   2.111       .  S
C455       N1440   1.346       .  A
C455        C469   1.458   1_556  S
C455        C579   1.471       .  S
C456        C475   1.458       .  S
C456        H460   1.081       .  S
N457        C468   1.352       .  A
N457       Co467   2.122       .  S
N459       C1436   1.347       .  A
C461        N477   1.352       .  A
C461        C478   1.493       .  S
C461       C1454   1.460   1_554  S
Co463     Cl1455   2.465       .  S
N464       C1456   1.353   1_554  A
C465       N1417   1.346   1_554  A
C465        C635   1.483   1_554  S
Co467      Cl474   2.458   1_554  S
C473       C1442   1.461       .  S
Cl474     Co1411   2.422       .  S
Cl474     Co1444   2.467       .  S
C475       N1445   1.354       .  A
C475        C509   1.494       .  S
C478        C483   1.414   1_554  A
C478       C1460   1.413       .  A
C479        C480   1.418       .  A
C479       C1459   1.413       .  A
C479        C484   1.450       .  S
C480       C1462   1.414       .  A
C480        C487   1.450       .  S
C481        C482   1.412   1_554  A
C481       C1461   1.413       .  A
C482        C483   1.416       .  A
C482        C485   1.450       .  S
C483        C486   1.450       .  S
C484        N491   1.157       .  T
C485        N490   1.157       .  T
C486        N488   1.157       .  T
C487        N489   1.157       .  T
C492        C497   1.415       .  A
C492       C1474   1.410   1_554  A
C493        C494   1.406       .  A
C493       C1473   1.408       .  A
C493        C498   1.450       .  S
C494       C1476   1.410       .  A
C494        C501   1.451       .  S
C495        C496   1.413       .  A
C495       C1475   1.409   1_554  A
C496        C497   1.402       .  A
C496        C499   1.454       .  S
C497        C500   1.453       .  S
C498        N505   1.157       .  T
C499        N504   1.158       .  T
C500        N502   1.157       .  T
C501        N503   1.157       .  T
C506        C507   1.412       .  A
C506       C1492   1.414       .  A
C507        C508   1.416   1_565  A
C507        C512   1.450       .  S
C508        C509   1.414       .  A
C508        C515   1.450       .  S
C509       C1491   1.413       .  A
C510        C511   1.418   1_545  A
C510       C1490   1.414   1_554  A
C510        C513   1.451       .  S
C511       C1487   1.417       .  A
C511        C514   1.450       .  S
C512        N519   1.157       .  T
C513        N518   1.157       .  T
C514        N516   1.157       .  T
C515        N517   1.157       .  T
C520        C525   1.407       .  A
C520       C1502   1.408       .  A
C521        C522   1.402       .  A
C521       C1501   1.409       .  A
C521        C526   1.453       .  S
C522       C1504   1.413       .  A
C522        C529   1.453       .  S
C523        C524   1.408       .  A
C523       C1503   1.413       .  A
C524        C525   1.405       .  A
C524        C527   1.449   1_556  S
C525        C528   1.451   1_556  S
C526        N533   1.157       .  T
C527        N532   1.157       .  T
C528        N530   1.157       .  T
C529        N531   1.157       .  T
C534        C535   1.421       .  A
C534       C1520   1.413   1_554  A
C535        C536   1.401       .  A
C535        C540   1.456       .  S
C536        C537   1.411       .  A
C536        C543   1.453       .  S
C537       C1519   1.410   1_554  A
C538        C539   1.405       .  A
C538       C1518   1.411       .  A
C538        C541   1.454       .  S
C539       C1515   1.410       .  A
C539        C542   1.448       .  S
C540        N547   1.158       .  T
C541        N546   1.157       .  T
C542        N544   1.156       .  T
C543        N545   1.158       .  T
C548        C553   1.415       .  A
C548       C1530   1.418       .  A
C549        C550   1.417   1_545  A
C549       C1529   1.421       .  A
C549        C554   1.450       .  S
C550       C1532   1.414       .  A
C550        C557   1.452       .  S
C551        C552   1.414       .  A
C551       C1531   1.414       .  A
C552        C553   1.414   1_565  A
C552        C555   1.451       .  S
C553        C556   1.451       .  S
C554        N561   1.157       .  T
C555        N560   1.157       .  T
C556        N558   1.157       .  T
C557        N559   1.157       .  T
C562        C567   1.416       .  A
C562       C1544   1.417   1_554  A
C563        C564   1.420   1_655  A
C563       C1543   1.418       .  A
C563        C568   1.450       .  S
C564       C1546   1.416       .  A
C564        C571   1.450       .  S
C565       C1361   1.506       .  S
C565        C566   1.418       .  A
C565       C1545   1.415   1_554  A
C566        C567   1.418   1_455  A
C566        C569   1.451       .  S
C567        C570   1.451       .  S
C568        N575   1.157       .  T
C569        N574   1.157       .  T
C570        N572   1.157       .  T
C571        N573   1.157       .  T
C576        C577   1.410   1_556  A
C576       C1562   1.411       .  A
C577        C578   1.407       .  A
C577        C582   1.449       .  S
C578        C579   1.410   1_554  A
C578        C585   1.452       .  S
C579       C1561   1.414       .  A
C580        C581   1.401       .  A
C580       C1560   1.415       .  A
C580        C583   1.454       .  S
C581       C1557   1.417       .  A
C581        C584   1.454       .  S
C582        N589   1.156       .  T
C583        N588   1.158       .  T
C584        N586   1.158       .  T
C585        N587   1.157       .  T
C590       C1149   1.494       .  S
C590        C591   1.414   1_554  A
C590       C1576   1.414       .  A
C591        C592   1.417   1_655  A
C591        C596   1.450       .  S
C592        C593   1.413       .  A
C592        C599   1.450       .  S
C593       C1575   1.412   1_556  A
C594        C595   1.413   1_455  A
C594       C1574   1.411       .  A
C594        C597   1.450       .  S
C595       C1571   1.413       .  A
C595        C598   1.451       .  S
C596        N603   1.157       .  T
C597        N602   1.157       .  T
C598        N600   1.157       .  T
C599        N601   1.157       .  T
C604        C605   1.417       .  A
C604       C1590   1.417   1_554  A
C605        C606   1.418       .  A
C605        C610   1.451       .  S
C606        C607   1.414       .  A
C606        C613   1.450       .  S
C607       C1589   1.415   1_554  A
C608        C609   1.419       .  A
C608       C1588   1.417       .  A
C608        C611   1.450       .  S
C609       C1585   1.418       .  A
C609        C612   1.450       .  S
C610        N617   1.157       .  T
C611        N616   1.157       .  T
C612        N614   1.157       .  T
C613        N615   1.157       .  T
C618        C619   1.412   1_556  A
C618       C1604   1.409       .  A
C619        C620   1.400       .  A
C619        C624   1.454       .  S
C620        C621   1.413   1_554  A
C620        C627   1.454       .  S
C621       C1603   1.409       .  A
C622        C623   1.407       .  A
C622       C1602   1.407       .  A
C622        C625   1.451       .  S
C623       C1599   1.410       .  A
C623        C626   1.449       .  S
C624        N631   1.158       .  T
C625        N630   1.157       .  T
C626        N628   1.157       .  T
C627        N629   1.158       .  T
C632        C637   1.412   1_556  A
C632       C1614   1.414       .  A
C633        C634   1.402       .  A
C633       C1613   1.413       .  A
C633        C638   1.454       .  S
C634       C1616   1.415       .  A
C634        C641   1.453       .  S
C635        C636   1.414   1_556  A
C635       C1615   1.417       .  A
C636        C637   1.410       .  A
C636        C639   1.451       .  S
C637        C640   1.452       .  S
C638        N645   1.158       .  T
C639        N644   1.158       .  T
C640        N642   1.158       .  T
C641        N643   1.157       .  T
C646        C647   1.419       .  A
C646        C651   1.411       .  A
C647        C648   1.415       .  A
C647        C652   1.451       .  S
C648        C649   1.408       .  A
C648        C655   1.450       .  S
C649        C650   1.414       .  A
C650        C651   1.411       .  A
C650        C653   1.450       .  S
C651        C654   1.451       .  S
C652        N659   1.157       .  T
C653        N658   1.156       .  T
C654        N656   1.157       .  T
C655        N657   1.157       .  T
C660        C661   1.414       .  A
C660        C665   1.408       .  A
C661        C662   1.412       .  A
C661        C666   1.451       .  S
C662        C663   1.411       .  A
C662        C669   1.450       .  S
C663        C664   1.413       .  A
C664        C665   1.407       .  A
C664        C667   1.452       .  S
C665        C668   1.450       .  S
C666        N673   1.157       .  T
C667        N672   1.157       .  T
C668        N670   1.157       .  T
C669        N671   1.157       .  T
C674        C675   1.422       .  A
C674        C679   1.413       .  A
C675        C676   1.415       .  A
C675        C680   1.449       .  S
C676        C677   1.407       .  A
C676        C683   1.451       .  S
C677        C678   1.417       .  A
C678        C679   1.415       .  A
C678        C681   1.451       .  S
C679        C682   1.451       .  S
C680        N687   1.156       .  T
C681        N686   1.157       .  T
C682        N684   1.157       .  T
C683        N685   1.157       .  T
C688        C689   1.416       .  A
C688        C693   1.411       .  A
C689        C690   1.411       .  A
C689        C694   1.453       .  S
C690        C691   1.408       .  A
C690        C697   1.447       .  S
C691        C692   1.419       .  A
C692        C693   1.415       .  A
C692        C695   1.451       .  S
C693        C696   1.450       .  S
C694        N701   1.157       .  T
C695        N700   1.157       .  T
C696        N698   1.158       .  T
C697        N699   1.156       .  T
C702        C703   1.416       .  A
C702        C707   1.409       .  A
C703        C704   1.413       .  A
C703        C708   1.451       .  S
C704        C705   1.409       .  A
C704        C711   1.450       .  S
C705        C706   1.415       .  A
C706        C707   1.410       .  A
C706        C709   1.452       .  S
C707        C710   1.450       .  S
C708        N715   1.157       .  T
C709        N714   1.157       .  T
C710        N712   1.157       .  T
C711        N713   1.157       .  T
C716        C717   1.412       .  A
C716        C721   1.411       .  A
C717        C718   1.412       .  A
C717        C722   1.451       .  S
C718        C719   1.411       .  A
C718        C725   1.450       .  S
C719        C720   1.411       .  A
C720        C721   1.410       .  A
C720        C723   1.451       .  S
C721        C724   1.451       .  S
C722        N729   1.157       .  T
C723        N728   1.157       .  T
C724        N726   1.157       .  T
C725        N727   1.157       .  T
C730        C731   1.420       .  A
C730        C735   1.408       .  A
C731        C732   1.416       .  A
C731        C736   1.451       .  S
C732        C733   1.412       .  A
C732        C739   1.450       .  S
C733        C734   1.423       .  A
C734        C735   1.412       .  A
C734        C737   1.453       .  S
C735        C738   1.449       .  S
C736        N743   1.157       .  T
C737        N742   1.158       .  T
C738        N740   1.157       .  T
C739        N741   1.157       .  T
C744        C745   1.414       .  A
C744        C749   1.426       .  A
C745        C746   1.417       .  A
C745        C750   1.451       .  S
C746        C747   1.422       .  A
C746        C753   1.453       .  S
C747        C748   1.408       .  A
C748        C749   1.418       .  A
C748        C751   1.451       .  S
C749        C752   1.448       .  S
C750        N757   1.157       .  T
C751        N756   1.157       .  T
C752        N754   1.156       .  T
C753        N755   1.158       .  T
C758        C759   1.408       .  A
C758        C763   1.418       .  A
C759        C760   1.411       .  A
C759        C764   1.450       .  S
C760        C761   1.421       .  A
C760        C767   1.453       .  S
C761        C762   1.411       .  A
C762        C763   1.415       .  A
C762        C765   1.450       .  S
C763        C766   1.451       .  S
C764        N771   1.157       .  T
C765        N770   1.157       .  T
C766        N768   1.157       .  T
C767        N769   1.158       .  T
C772        C773   1.406       .  A
C772        C777   1.417       .  A
C773        C774   1.410       .  A
C773        C778   1.452       .  S
C774        C775   1.417       .  A
C774        C781   1.447       .  S
C775        C776   1.411       .  A
C776        C777   1.416       .  A
C776        C779   1.450       .  S
C777        C780   1.451       .  S
C778        N785   1.157       .  T
C779        N784   1.157       .  T
C780        N782   1.157       .  T
C781        N783   1.155       .  T
C786        C787   1.410       .  A
C786        C791   1.410       .  A
C787        C788   1.410       .  A
C787        C792   1.452       .  S
C788        C789   1.410       .  A
C788        C795   1.447       .  S
C789        C790   1.413       .  A
C790        C791   1.410       .  A
C790        C793   1.451       .  S
C791        C794   1.451       .  S
C792        N799   1.157       .  T
C793        N798   1.157       .  T
C794        N796   1.157       .  T
C795        N797   1.156       .  T
C800        C801   1.411       .  A
C800        C805   1.418       .  A
C801        C802   1.412       .  A
C801        C806   1.451       .  S
C802        C803   1.414       .  A
C802        C809   1.451       .  S
C803        C804   1.408       .  A
C804        C805   1.413       .  A
C804        C807   1.451       .  S
C805        C808   1.451       .  S
C806        N813   1.157       .  T
C807        N812   1.157       .  T
C808        N810   1.157       .  T
C809        N811   1.157       .  T
C814        C815   1.407       .  A
C814        C819   1.417       .  A
C815        C816   1.409       .  A
C815        C820   1.452       .  S
C816        C817   1.418       .  A
C816        C823   1.450       .  S
C817        C818   1.411       .  A
C818        C819   1.415       .  A
C818        C821   1.450       .  S
C819        C822   1.450       .  S
C820        N827   1.157       .  T
C821        N826   1.157       .  T
C822        N824   1.157       .  T
C823        N825   1.156       .  T
C828        C829   1.407       .  A
C828        C833   1.418       .  A
C829        C830   1.409       .  A
C829        C834   1.451       .  S
C830        C831   1.417       .  A
C830        C837   1.451       .  S
C831        C832   1.409       .  A
C832        C833   1.413       .  A
C832        C835   1.451       .  S
C833        C836   1.450       .  S
C834        N841   1.157       .  T
C835        N840   1.157       .  T
C836        N838   1.157       .  T
C837        N839   1.157       .  T
C842        C843   1.420       .  A
C842        C847   1.407       .  A
C843        C844   1.414       .  A
C843        C848   1.452       .  S
C844        C845   1.413       .  A
C844        C851   1.451       .  S
C845        C846   1.421       .  A
C846        C847   1.414       .  A
C846        C849   1.452       .  S
C847        C850   1.448       .  S
C848        N855   1.158       .  T
C849        N854   1.158       .  T
C850        N852   1.156       .  T
C851        N853   1.157       .  T
C856        C857   1.416       .  A
C856        C861   1.409       .  A
C857        C858   1.410       .  A
C857        C862   1.452       .  S
C858        C859   1.410       .  A
C858        C865   1.452       .  S
C859        C860   1.419       .  A
C860        C861   1.413       .  A
C860        C863   1.452       .  S
C861        C864   1.451       .  S
C862        N869   1.157       .  T
C863        N868   1.158       .  T
C864        N866   1.157       .  T
C865        N867   1.157       .  T
C870        C871   1.408       .  A
C870        C875   1.413       .  A
C871        C872   1.409       .  A
C871        C876   1.451       .  S
C872        C873   1.414       .  A
C872        C879   1.452       .  S
C873        C874   1.409       .  A
C874        C875   1.410       .  A
C874        C877   1.451       .  S
C875        C878   1.448       .  S
C876        N883   1.157       .  T
C877        N882   1.157       .  T
C878        N880   1.156       .  T
C879        N881   1.157       .  T
C884        C885   1.414       .  A
C884        C889   1.409       .  A
C885        C886   1.408       .  A
C885        C890   1.449       .  S
C886        C887   1.407       .  A
C886        C893   1.450       .  S
C887        C888   1.411       .  A
C888        C889   1.411       .  A
C888        C891   1.451       .  S
C889        C892   1.451       .  S
C890        N897   1.156       .  T
C891        N896   1.157       .  T
C892        N894   1.157       .  T
C893        N895   1.157       .  T
C898        C899   1.420       .  A
C898        C903   1.408       .  A
C899        C900   1.416       .  A
C899        C904   1.451       .  S
C900        C901   1.411       .  A
C900        C907   1.450       .  S
C901        C902   1.419       .  A
C902        C903   1.414       .  A
C902        C905   1.451       .  S
C903        C906   1.450       .  S
C904        N911   1.157       .  T
C905        N910   1.157       .  T
C906        N908   1.157       .  T
C907        N909   1.157       .  T
C912        C913   1.413       .  A
C912        C917   1.417       .  A
C913        C914   1.412       .  A
C913        C918   1.452       .  S
C914        C915   1.416       .  A
C914        C921   1.452       .  S
C915        C916   1.409       .  A
C916        C917   1.414       .  A
C916        C919   1.450       .  S
C917        C920   1.451       .  S
C918        N925   1.157       .  T
C919        N924   1.157       .  T
C920        N922   1.157       .  T
C921        N923   1.157       .  T
C926        C927   1.413       .  A
C926        C931   1.410       .  A
C927        C928   1.415       .  A
C927        C932   1.451       .  S
C928        C929   1.413       .  A
C928        C935   1.450       .  S
C929        C930   1.411       .  A
C930        C931   1.411       .  A
C930        C933   1.447       .  S
C931        C934   1.450       .  S
C932        N939   1.157       .  T
C933        N938   1.156       .  T
C934        N936   1.157       .  T
C935        N937   1.158       .  T
C940        C941   1.411       .  A
C940        C945   1.420       .  A
C941        C942   1.415       .  A
C941        C946   1.450       .  S
C942        C943   1.417       .  A
C942        C949   1.451       .  S
C943        C944   1.410       .  A
C944        C945   1.415       .  A
C944        C947   1.451       .  S
C945        C948   1.452       .  S
C946        N953   1.157       .  T
C947        N952   1.158       .  T
C948        N950   1.158       .  T
C949        N951   1.157       .  T
C954        C955   1.422       .  A
C954        C959   1.409       .  A
C955        C956   1.411       .  A
C955        C960   1.452       .  S
C956        C957   1.414       .  A
C956        C963   1.452       .  S
C957        C958   1.427       .  A
C958        C959   1.415       .  A
C958        C961   1.451       .  S
C959        C962   1.451       .  S
C960        N967   1.157       .  T
C961        N966   1.158   1_545  T
C962        N964   1.157       .  T
C963        N965   1.157       .  T
C968        C969   1.422       .  A
C968        C973   1.413       .  A
C969        C970   1.416       .  A
C969        C974   1.450       .  S
C970        C971   1.408       .  A
C970        C977   1.452       .  S
C971        C972   1.417       .  A
C972        C973   1.415       .  A
C972        C975   1.452       .  S
C973        C976   1.451       .  S
C974        N981   1.157       .  T
C975        N980   1.157       .  T
C976        N978   1.157       .  T
C977        N979   1.157       .  T
C982       N1000   1.360       .  A
C982       C1019   1.449       .  S
C982       C1949   1.494       .  S
N983       N1000   1.333       .  A
N983       N1005   1.319       .  A
N983      Co1020   2.117       .  S
C984       N1009   1.348       .  A
C984       C1022   1.467       .  S
C984       H1029   1.081       .  S
H985       C1026   1.081       .  S
C986       N1010   1.337       .  A
C986        C990   1.451       .  S
C986       H1015   1.081       .  S
Co987      N1005   2.068   1_565  S
Co987       N995   2.044       .  S
Co987      N1027   2.053   1_565  S
Co987      N1003   2.063       .  S
Co987     Cl1031   2.420       .  S
N988       C1026   1.350       .  A
N988        N995   1.321       .  A
N988       Co989   2.118       .  S
Co989       N992   2.110       .  S
Co989      N1009   2.109       .  S
Co989       N996   2.131       .  S
Co989     Cl1031   2.483       .  S
C990       N1028   1.358       .  A
C990       C1893   1.491       .  S
N991        N998   1.321       .  A
N991       N1021   1.318       .  A
N991      Co1024   2.057   1_545  S
N992       N1010   1.319       .  A
N992       N1028   1.330       .  A
N993       C1022   1.340       .  A
N993       N1003   1.320       .  A
H994       C1019   1.081       .  S
N995       N1016   1.316       .  A
N996       N1014   1.320       .  A
N996       N1001   1.335       .  A
C997       N1001   1.363       .  A
C997       C1025   1.447       .  S
C997       C1879   1.497       .  S
N998       C1013   1.349       .  A
N998      Co1020   2.115       .  S
C999       N1027   1.331       .  A
C999       C1002   1.452       .  S
C999       H1033   1.078       .  S
C1002      N1023   1.362       .  A
C1002      C1938   1.499       .  S
N1003      N1009   1.322       .  A
N1004      C1030   1.347       .  A
N1004      N1006   1.321       .  A
N1004     Co1020   2.106       .  S
N1005      C1019   1.336       .  A
N1006      N1034   1.319       .  A
N1006     Co1024   2.057   1_545  S
H1007      C1030   1.081       .  S
H1008      C1025   1.081       .  S
N1010     Co1024   2.066       .  S
N1011      N1023   1.330       .  A
N1011      N1027   1.317       .  A
N1011     Co1020   2.117       .  S
C1012      N1016   1.336       .  A
C1012      C1026   1.471       .  S
C1012      C1865   1.475       .  S
C1013      C1032   1.472       .  S
C1013      H1017   1.081       .  S
N1014      C1025   1.334       .  A
N1014     Co1024   2.065       .  S
C1018      N1034   1.339       .  A
C1018      C1030   1.466       .  S
C1018      C1907   1.474       .  S
Co1020    Cl1031   2.483   1_545  S
N1021      C1032   1.340       .  A
C1022      C1851   1.478       .  S
Co1024    Cl1031   2.421       .  S
C1032      C1924   1.486       .  S
C1035      N1053   1.357       .  A
C1035      C1072   1.445       .  S
C1035      C1840   1.479       .  S
N1036      N1053   1.330       .  A
N1036      N1058   1.320       .  A
N1036     Co1073   2.109       .  S
C1037      N1062   1.346       .  A
C1037      C1075   1.470       .  S
C1037      H1082   1.081       .  S
H1038      C1079   1.081       .  S
C1039      N1063   1.332       .  A
C1039      C1043   1.444       .  S
C1039      H1068   1.081       .  S
Co1040     N1058   2.058       .  S
Co1040     N1048   2.069   1_455  S
Co1040     N1080   2.072       .  S
Co1040     N1056   2.063   1_455  S
Co1040    Cl1084   2.424       .  S
N1041      C1079   1.350       .  A
N1041      N1048   1.321       .  A
N1041     Co1042   2.116       .  S
Co1042     N1045   2.117       .  S
Co1042     N1062   2.112       .  S
Co1042     N1049   2.115       .  S
Co1042    Cl1084   2.482   1_655  S
C1043      N1081   1.360       .  A
C1043      C1781   1.486       .  S
N1044      N1051   1.320       .  A
N1044      N1074   1.320       .  A
N1044     Co1077   2.058       .  S
N1045      N1063   1.320       .  A
N1045      N1081   1.331       .  A
N1046      C1075   1.342       .  A
N1046      N1056   1.322       .  A
H1047      C1072   1.081       .  S
N1048      N1069   1.322       .  A
N1049      N1067   1.320       .  A
N1049      N1054   1.330       .  A
C1050      N1054   1.358       .  A
C1050      C1078   1.442       .  S
C1050      C1767   1.478       .  S
N1051      C1066   1.349       .  A
N1051     Co1073   2.113       .  S
C1052      N1080   1.335       .  A
C1052      C1055   1.452       .  S
C1052      H1086   1.081       .  S
C1055      N1076   1.359       .  A
C1055      C1826   1.493       .  S
N1056      N1062   1.321       .  A
N1057      C1083   1.350       .  A
N1057      N1059   1.320       .  A
N1057     Co1073   2.115       .  S
N1058      C1072   1.333       .  A
N1059      N1087   1.319       .  A
N1059     Co1077   2.051       .  S
H1060      C1083   1.081       .  S
H1061      C1078   1.081       .  S
N1063     Co1077   2.055   1_655  S
N1064      N1076   1.330       .  A
N1064      N1080   1.321       .  A
N1064     Co1073   2.112       .  S
C1065      N1069   1.342       .  A
C1065      C1079   1.470       .  S
C1065      C1753   1.486       .  S
C1066      C1085   1.471       .  S
C1066      H1070   1.081       .  S
N1067      C1078   1.333       .  A
N1067     Co1077   2.056   1_655  S
C1071      N1087   1.338       .  A
C1071      C1083   1.471       .  S
C1071      C1795   1.479       .  S
Co1073    Cl1084   2.482       .  S
N1074      C1085   1.340       .  A
C1075      C1739   1.485       .  S
Co1077    Cl1084   2.423       .  S
C1085      C1809   1.485       .  S
C1088      N1106   1.364       .  A
C1088      C1125   1.453       .  S
C1088      C1725   1.507       .  S
N1089      N1106   1.333       .  A
N1089      N1111   1.319       .  A
N1089     Co1126   2.125       .  S
C1090      N1115   1.350       .  A
C1090      C1128   1.472       .  S
C1090      H1135   1.081       .  S
H1091      C1132   1.081       .  S
C1092      N1116   1.332       .  A
C1092      C1096   1.445       .  S
C1092      H1121   1.081       .  S
Co1093     N1111   2.066       .  S
Co1093     N1101   2.052       .  S
Co1093     N1133   2.053       .  S
Co1093     N1109   2.056       .  S
Co1093    Cl1137   2.415       .  S
N1094      C1132   1.349       .  A
N1094      N1101   1.322       .  A
N1094     Co1095   2.114       .  S
Co1095     N1098   2.123       .  S
Co1095     N1115   2.116       .  S
Co1095     N1102   2.123       .  S
Co1095    Cl1137   2.487       .  S
C1096      N1134   1.361       .  A
C1096      C1672   1.489       .  S
N1097      N1104   1.321       .  A
N1097      N1127   1.319       .  A
N1097     Co1130   2.055       .  S
N1098      N1116   1.320       .  A
N1098      N1134   1.333       .  A
N1099      C1128   1.339       .  A
N1099      N1109   1.318       .  A
H1100      C1125   1.081       .  S
N1101      N1122   1.318       .  A
N1102      N1120   1.319       .  A
N1102      N1107   1.333       .  A
C1103      N1107   1.363       .  A
C1103      C1131   1.447       .  S
C1103      C1655   1.496       .  S
N1104      C1119   1.349       .  A
N1104     Co1126   2.113       .  S
C1105      N1133   1.333       .  A
C1105      C1108   1.448       .  S
C1105      H1139   1.081       .  S
C1108      N1129   1.359       .  A
C1108      C1711   1.488       .  S
N1109      N1115   1.321       .  A
N1110      C1136   1.350       .  A
N1110      N1112   1.321       .  A
N1110     Co1126   2.115       .  S
N1111      C1125   1.334       .  A
N1112      N1140   1.318       .  A
N1112     Co1130   2.051       .  S
H1113      C1136   1.081       .  S
H1114      C1131   1.081       .  S
N1116     Co1130   2.054       .  S
N1117      N1129   1.330       .  A
N1117      N1133   1.318       .  A
N1117     Co1126   2.111       .  S
C1118      N1122   1.337       .  A
C1118      C1132   1.469       .  S
C1118      C1641   1.475       .  S
C1119      C1138   1.469       .  S
C1119      H1123   1.081       .  S
N1120      C1131   1.332       .  A
N1120     Co1130   2.058       .  S
C1124      N1140   1.337       .  A
C1124      C1136   1.471       .  S
C1124      C1683   1.478       .  S
Co1126    Cl1137   2.486       .  S
N1127      C1138   1.338       .  A
C1128      C1627   1.483       .  S
Co1130    Cl1137   2.417       .  S
C1138      C1697   1.477       .  S
C1141      N1159   1.347       .  A
C1141      C1599   1.467       .  S
N1142      N1159   1.321       .  A
N1142     Co1179   2.061       .  S
C1143      N1168   1.353       .  A
C1143      C1181   1.479       .  S
C1143      H1188   1.081       .  S
H1144      C1185   1.081       .  S
C1145      N1169   1.343       .  A
C1145      H1174   1.081       .  S
Co1146     N1164   2.059       .  S
Co1146     N1154   2.055       .  S
Co1146     N1186   2.061       .  S
Co1146     N1162   2.043       .  S
N1147      C1185   1.353       .  A
N1147      N1154   1.320       .  A
N1147     Co1148   2.120       .  S
Co1148     N1151   2.104       .  S
Co1148     N1168   2.120       .  S
Co1148     N1155   2.105       .  S
C1149      N1187   1.351   1_554  A
N1150      N1157   1.319       .  A
N1150      N1180   1.333       .  A
N1150     Co1183   2.118       .  S
N1151      N1187   1.328       .  A
N1152      C1181   1.338       .  A
N1152      N1162   1.315       .  A
H1153      C1178   1.081       .  S
N1154      N1175   1.318       .  A
N1155      N1160   1.327       .  A
C1156      C1184   1.467       .  S
C1156      C1588   1.508       .  S
N1157      C1172   1.329       .  A
N1157     Co1179   2.053       .  S
C1158      N1186   1.332       .  A
C1158      H1192   1.081       .  S
C1161      N1182   1.350       .  A
C1161      C1613   1.473       .  S
N1162      N1168   1.318       .  A
N1163      C1189   1.329       .  A
N1163      N1165   1.320       .  A
N1163     Co1179   2.048       .  S
N1164      C1178   1.338       .  A
N1165      N1193   1.333       .  A
N1165     Co1183   2.121       .  S
H1166      C1189   1.082       .  S
H1167      C1184   1.081       .  S
N1169     Co1183   2.105       .  S
N1170      N1182   1.324       .  A
N1170     Co1179   2.072       .  S
C1171      N1175   1.339       .  A
C1171      C1185   1.473       .  S
C1171      C1756   1.483       .  S
C1172      C1191   1.445       .  S
C1172      H1176   1.081       .  S
N1173      C1184   1.345       .  A
N1173     Co1183   2.109       .  S
C1177      N1193   1.360       .  A
C1177      C1189   1.443       .  S
C1177      C1658   1.484       .  S
Co1179    Cl1190   2.441       .  S
N1180      C1191   1.361       .  A
C1181      C1669   1.489       .  S
Co1183    Cl1190   2.460       .  S
C1191      C1742   1.489       .  S
C1194      N1212   1.351       .  A
C1194      C1557   1.476       .  S
N1195      N1212   1.324       .  A
N1195     Co1232   2.066       .  S
C1196      N1221   1.351       .  A
C1196      C1234   1.473       .  S
C1196      H1241   1.081       .  S
H1197      C1238   1.082       .  S
C1198      N1222   1.341       .  A
C1198      H1227   1.081       .  S
Co1199     N1217   2.053       .  S
Co1199     N1207   2.050       .  S
Co1199     N1239   2.063       .  S
Co1199     N1215   2.045       .  S
N1200      C1238   1.351       .  A
N1200      N1207   1.319       .  A
N1200     Co1201   2.115       .  S
Co1201     N1204   2.105       .  S
Co1201     N1221   2.116       .  S
Co1201     N1208   2.112       .  S
C1202      N1240   1.355   1_554  A
C1202      C1529   1.506       .  S
N1203      N1210   1.320       .  A
N1203      N1233   1.329       .  A
N1203     Co1236   2.107       .  S
N1204      N1240   1.327       .  A
N1205      C1234   1.338       .  A
N1205      N1215   1.317       .  A
H1206      C1231   1.081       .  S
N1207      N1228   1.316       .  A
N1208      N1213   1.330       .  A
C1209      C1237   1.466       .  S
C1209      C1543   1.507       .  S
N1210      C1225   1.331       .  A
N1210     Co1232   2.057       .  S
C1211      N1239   1.337       .  A
C1211      H1245   1.082       .  S
C1214      N1235   1.346       .  A
C1214      C1602   1.462       .  S
N1215      N1221   1.319       .  A
N1216      C1242   1.330       .  A
N1216      N1218   1.319       .  A
N1216     Co1232   2.051       .  S
N1217      C1231   1.332       .  A
N1218      N1246   1.332       .  A
N1218     Co1236   2.114       .  S
H1219      C1242   1.082       .  S
H1220      C1237   1.081       .  S
N1222     Co1236   2.091       .  S
N1223      N1235   1.320       .  A
N1223     Co1232   2.063       .  S
C1224      N1228   1.340       .  A
C1224      C1238   1.476       .  S
C1224      C1921   1.487       .  S
C1225      C1244   1.445       .  S
C1225      H1229   1.081       .  S
N1226      C1237   1.342       .  A
N1226     Co1236   2.102       .  S
C1230      N1246   1.358       .  A
C1230      C1242   1.440       .  S
C1230      C1770   1.478       .  S
Co1232    Cl1243   2.447       .  S
N1233      C1244   1.355       .  A
C1234      C1784   1.481       .  S
Co1236    Cl1243   2.457       .  S
C1244      C1910   1.474       .  S
C1247      N1265   1.343       .  A
C1247      C1515   1.474       .  S
N1248      N1265   1.314       .  A
N1248     Co1285   2.051       .  S
C1249      N1274   1.350       .  A
C1249      C1287   1.469       .  S
C1249      H1294   1.081       .  S
H1250      C1291   1.081       .  S
C1251      N1275   1.343       .  A
C1251      H1280   1.081       .  S
Co1252     N1270   2.061       .  S
Co1252     N1260   2.046       .  S
Co1252     N1292   2.058       .  S
Co1252     N1268   2.050       .  S
N1253      C1291   1.349       .  A
N1253      N1260   1.320       .  A
N1253     Co1254   2.111       .  S
Co1254     N1257   2.099       .  S
Co1254     N1274   2.110       .  S
Co1254     N1261   2.102       .  S
C1255      N1293   1.352   1_554  A
C1255      C1487   1.500       .  S
N1256      N1263   1.317       .  A
N1256      N1286   1.332       .  A
N1256     Co1289   2.114       .  S
N1257      N1293   1.327       .  A
N1258      C1287   1.338       .  A
N1258      N1268   1.317       .  A
H1259      C1284   1.081       .  S
N1260      N1281   1.316       .  A
N1261      N1266   1.329       .  A
C1262      C1290   1.460       .  S
C1262      C1574   1.487       .  S
N1263      C1278   1.329       .  A
N1263     Co1285   2.044       .  S
C1264      N1292   1.336       .  A
C1264      H1298   1.081       .  S
C1267      N1288   1.345       .  A
C1267      C1501   1.459       .  S
N1268      N1274   1.320       .  A
N1269      C1295   1.331       .  A
N1269      N1271   1.319       .  A
N1269     Co1285   2.051       .  S
N1270      C1284   1.341       .  A
N1271      N1299   1.332       .  A
N1271     Co1289   2.116       .  S
H1272      C1295   1.082       .  S
H1273      C1290   1.081       .  S
N1275     Co1289   2.101       .  S
N1276      N1288   1.321       .  A
N1276     Co1285   2.065       .  S
C1277      N1281   1.339       .  A
C1277      C1291   1.471       .  S
C1277      C1868   1.475       .  S
C1278      C1297   1.440       .  S
C1278      H1282   1.081       .  S
N1279      C1290   1.343       .  A
N1279     Co1289   2.105       .  S
C1283      N1299   1.360       .  A
C1283      C1295   1.447       .  S
C1283      C1823   1.487       .  S
Co1285    Cl1296   2.418       .  S
N1286      C1297   1.360       .  A
C1287      C1837   1.475       .  S
Co1289    Cl1296   2.461       .  S
C1297      C1854   1.478       .  S
C1300      N1318   1.359       .  A
C1300      C1337   1.448       .  S
C1300      C1896   1.487       .  S
N1301      N1318   1.332       .  A
N1301      N1323   1.320       .  A
N1301     Co1338   2.119       .  S
C1302      N1327   1.334       .  A
C1302      C1340   1.456       .  S
C1302      H1347   1.082       .  S
H1303      C1344   1.080       .  S
C1304      N1328   1.354       .  A
C1304      C1308   1.480       .  S
C1304      H1333   1.081       .  S
Co1305     N1323   2.061       .  S
Co1305     N1313   2.064       .  S
Co1305     N1345   2.054       .  S
Co1305     N1321   2.063       .  S
N1306      C1344   1.332       .  A
N1306     Co1307   2.048       .  S
Co1307     N1310   2.054       .  S
Co1307     N1327   2.059       .  S
Co1307     N1314   2.039       .  S
Co1307    Cl1349   2.427       .  S
C1308      N1346   1.340       .  A
C1308      C1882   1.495       .  S
N1309      N1339   1.326       .  A
N1309     Co1342   2.100       .  S
N1310      N1328   1.318       .  A
N1310      N1346   1.319       .  A
N1311      N1321   1.321       .  A
H1312      C1337   1.082       .  S
N1313      N1334   1.321       .  A
N1314      N1332   1.318       .  A
N1314      N1319   1.315       .  A
C1315      N1319   1.337       .  A
C1315      C1343   1.474       .  S
C1315      C1686   1.476       .  S
N1316      C1331   1.342       .  A
N1316     Co1338   2.098       .  S
C1317      N1345   1.331       .  A
C1317      C1320   1.444       .  S
C1317      H1351   1.082       .  S
C1320      N1341   1.357       .  A
C1320      C1700   1.478       .  S
N1322      C1348   1.345       .  A
N1322     Co1338   2.109       .  S
N1323      C1337   1.334       .  A
N1324      N1352   1.329       .  A
N1324     Co1342   2.110       .  S
H1325      C1348   1.081       .  S
H1326      C1343   1.081       .  S
N1328     Co1342   2.126       .  S
N1329      N1341   1.331       .  A
N1329      N1345   1.320       .  A
N1329     Co1338   2.112       .  S
C1330      C1344   1.453       .  S
C1330      C1518   1.469       .  S
C1331      C1350   1.463   1_556  S
C1331      H1335   1.081       .  S
N1332      C1343   1.350       .  A
N1332     Co1342   2.110       .  S
C1336      N1352   1.355       .  A
C1336      C1585   1.509       .  S
C1340      C1473   1.467       .  S
Co1342    Cl1349   2.464       .  S
C1350      C1532   1.500       .  S
C1353      N1371   1.347       .  A
C1353      C1504   1.463       .  S
N1354      N1371   1.320       .  A
N1354     Co1391   2.059       .  S
C1355      N1380   1.353       .  A
C1355      C1393   1.478       .  S
C1355      H1400   1.081       .  S
H1356      C1397   1.081       .  S
C1357      N1381   1.341       .  A
C1357      H1386   1.081       .  S
Co1358     N1376   2.062       .  S
Co1358     N1366   2.047       .  S
Co1358     N1398   2.064       .  S
Co1358     N1374   2.060       .  S
N1359      C1397   1.353       .  A
N1359      N1366   1.319       .  A
N1359     Co1360   2.118       .  S
Co1360     N1363   2.120       .  S
Co1360     N1380   2.128       .  S
Co1360     N1367   2.113       .  S
C1361      N1399   1.357   1_554  A
N1362      N1369   1.318       .  A
N1362      N1392   1.333       .  A
N1362     Co1395   2.123       .  S
N1363      N1399   1.331       .  A
N1364      C1393   1.343       .  A
N1364      N1374   1.320       .  A
H1365      C1390   1.081       .  S
N1366      N1387   1.315       .  A
N1367      N1372   1.329       .  A
C1368      C1396   1.459       .  S
C1368      C1462   1.493       .  S
N1369      C1384   1.328       .  A
N1369     Co1391   2.038       .  S
C1370      N1398   1.338       .  A
C1370      H1404   1.081       .  S
C1373      N1394   1.344       .  A
C1373      C1476   1.466       .  S
N1374      N1380   1.321       .  A
N1375      C1401   1.327       .  A
N1375      N1377   1.317       .  A
N1375     Co1391   2.043       .  S
N1376      C1390   1.335       .  A
N1377      N1405   1.332       .  A
N1377     Co1395   2.120       .  S
H1378      C1401   1.081       .  S
H1379      C1396   1.081       .  S
N1381     Co1395   2.097       .  S
N1382      N1394   1.318       .  A
N1382     Co1391   2.055       .  S
C1383      N1387   1.338       .  A
C1383      C1397   1.477       .  S
C1383      C1812   1.485       .  S
C1384      C1403   1.441       .  S
C1384      H1388   1.082       .  S
N1385      C1396   1.344       .  A
N1385     Co1395   2.100       .  S
C1389      N1405   1.364       .  A
C1389      C1401   1.445       .  S
C1389      C1714   1.493       .  S
Co1391    Cl1402   2.433       .  S
N1392      C1403   1.360       .  A
C1393      C1728   1.499       .  S
Co1395    Cl1402   2.463       .  S
C1403      C1798   1.482       .  S
C1406      N1424   1.363       .  A
C1406      C1443   1.440       .  S
C1406      C1952   1.488       .  S
N1407      N1424   1.335       .  A
N1407      N1429   1.319       .  A
N1407     Co1444   2.130       .  S
C1408      N1433   1.339       .  A
C1408      C1446   1.459       .  S
C1408      H1453   1.082       .  S
H1409      C1450   1.081       .  S
C1410      N1434   1.349       .  A
C1410      C1414   1.475       .  S
C1410      H1439   1.081       .  S
Co1411     N1429   2.046       .  S
Co1411     N1419   2.059       .  S
Co1411     N1451   2.040       .  S
Co1411     N1427   2.061       .  S
N1412      C1450   1.335       .  A
N1412     Co1413   2.052       .  S
Co1413     N1416   2.052       .  S
Co1413     N1433   2.063       .  S
Co1413     N1420   2.046       .  S
Co1413    Cl1455   2.444       .  S
C1414      N1452   1.341       .  A
C1414      C1935   1.491       .  S
N1415      N1445   1.329       .  A
N1415     Co1448   2.115       .  S
N1416      N1434   1.319       .  A
N1416      N1452   1.317       .  A
N1417      N1427   1.318       .  A
H1418      C1443   1.082       .  S
N1419      N1440   1.318       .  A
N1420      N1438   1.321       .  A
N1420      N1425   1.316       .  A
C1421      N1425   1.337       .  A
C1421      C1449   1.474       .  S
C1421      C1630   1.479       .  S
N1422      C1437   1.345       .  A
N1422     Co1444   2.107       .  S
C1423      N1451   1.327       .  A
C1423      C1426   1.440       .  S
C1423      H1457   1.082       .  S
C1426      N1447   1.359       .  A
C1426      C1644   1.476       .  S
N1428      C1454   1.344       .  A
N1428     Co1444   2.102       .  S
N1429      C1443   1.330       .  A
N1430      N1458   1.329       .  A
N1430     Co1448   2.106       .  S
H1431      C1454   1.081       .  S
H1432      C1449   1.081       .  S
N1434     Co1448   2.108       .  S
N1435      N1447   1.331       .  A
N1435      N1451   1.318       .  A
N1435     Co1444   2.115       .  S
C1436      C1450   1.459       .  S
C1436      C1560   1.476       .  S
C1437      C1456   1.463       .  S
C1437      H1441   1.081       .  S
N1438      C1449   1.352       .  A
N1438     Co1448   2.122       .  S
C1442      N1458   1.352       .  A
C1442      C1459   1.495       .  S
C1446      C1616   1.476       .  S
Co1448    Cl1455   2.457       .  S
C1456      C1490   1.497       .  S
C1459      C1464   1.414       .  A
C1460      C1461   1.416       .  A
C1460      C1465   1.450       .  S
C1461      C1468   1.450       .  S
C1462      C1463   1.412       .  A
C1463      C1464   1.416       .  A
C1463      C1466   1.450       .  S
C1464      C1467   1.450       .  S
C1465      N1472   1.157       .  T
C1466      N1471   1.157       .  T
C1467      N1469   1.157       .  T
C1468      N1470   1.157       .  T
C1473      C1478   1.413       .  A
C1474      C1475   1.406       .  A
C1474      C1479   1.449       .  S
C1475      C1482   1.452       .  S
C1476      C1477   1.413       .  A
C1477      C1478   1.400       .  A
C1477      C1480   1.454       .  S
C1478      C1481   1.452       .  S
C1479      N1486   1.156       .  T
C1480      N1485   1.158       .  T
C1481      N1483   1.157       .  T
C1482      N1484   1.158       .  T
C1487      C1488   1.415   1_554  A
C1488      C1489   1.417   1_565  A
C1488      C1493   1.451       .  S
C1489      C1490   1.413       .  A
C1489      C1496   1.450       .  S
C1491      C1492   1.416   1_545  A
C1491      C1494   1.450       .  S
C1492      C1495   1.449       .  S
C1493      N1500   1.157       .  T
C1494      N1499   1.157       .  T
C1495      N1497   1.156       .  T
C1496      N1498   1.157       .  T
C1501      C1506   1.406       .  A
C1502      C1503   1.401       .  A
C1502      C1507   1.453       .  S
C1503      C1510   1.453       .  S
C1504      C1505   1.408       .  A
C1505      C1506   1.405       .  A
C1505      C1508   1.448       .  S
C1506      C1509   1.451       .  S
C1507      N1514   1.158       .  T
C1508      N1513   1.157       .  T
C1509      N1511   1.157       .  T
C1510      N1512   1.157       .  T
C1515      C1516   1.419       .  A
C1516      C1517   1.400       .  A
C1516      C1521   1.456       .  S
C1517      C1518   1.412       .  A
C1517      C1524   1.453       .  S
C1519      C1520   1.406       .  A
C1519      C1522   1.454       .  S
C1520      C1523   1.447       .  S
C1521      N1528   1.158       .  T
C1522      N1527   1.158       .  T
C1523      N1525   1.156       .  T
C1524      N1526   1.157       .  T
C1529      C1534   1.418   1_554  A
C1530      C1531   1.415   1_545  A
C1530      C1535   1.451       .  S
C1531      C1538   1.452       .  S
C1532      C1533   1.416   1_554  A
C1533      C1534   1.416   1_565  A
C1533      C1536   1.451       .  S
C1534      C1537   1.451       .  S
C1535      N1542   1.157       .  T
C1536      N1541   1.157       .  T
C1537      N1539   1.157       .  T
C1538      N1540   1.157       .  T
C1543      C1548   1.417       .  A
C1544      C1545   1.421   1_655  A
C1544      C1549   1.450       .  S
C1545      C1552   1.450       .  S
C1546      C1547   1.418       .  A
C1547      C1548   1.416   1_455  A
C1547      C1550   1.451       .  S
C1548      C1551   1.451       .  S
C1549      N1556   1.157       .  T
C1550      N1555   1.157       .  T
C1551      N1553   1.157       .  T
C1552      N1554   1.157       .  T
C1557      C1558   1.410       .  A
C1558      C1559   1.407       .  A
C1558      C1563   1.450       .  S
C1559      C1560   1.413       .  A
C1559      C1566   1.453       .  S
C1561      C1562   1.401       .  A
C1561      C1564   1.451       .  S
C1562      C1565   1.454       .  S
C1563      N1570   1.156       .  T
C1564      N1569   1.157       .  T
C1565      N1567   1.158       .  T
C1566      N1568   1.158       .  T
C1571      C1572   1.413       .  A
C1572      C1573   1.415   1_655  A
C1572      C1577   1.450       .  S
C1573      C1574   1.412       .  A
C1573      C1580   1.451       .  S
C1575      C1576   1.415   1_455  A
C1575      C1578   1.450       .  S
C1576      C1579   1.451       .  S
C1577      N1584   1.157       .  T
C1578      N1583   1.157       .  T
C1579      N1581   1.157       .  T
C1580      N1582   1.157       .  T
C1585      C1586   1.417       .  A
C1586      C1587   1.420       .  A
C1586      C1591   1.451       .  S
C1587      C1588   1.418       .  A
C1587      C1594   1.451       .  S
C1589      C1590   1.417       .  A
C1589      C1592   1.451       .  S
C1590      C1593   1.449       .  S
C1591      N1598   1.157       .  T
C1592      N1597   1.157       .  T
C1593      N1595   1.157       .  T
C1594      N1596   1.157       .  T
C1599      C1600   1.412       .  A
C1600      C1601   1.403       .  A
C1600      C1605   1.452       .  S
C1601      C1602   1.409       .  A
C1601      C1608   1.453       .  S
C1603      C1604   1.405       .  A
C1603      C1606   1.452       .  S
C1604      C1607   1.448       .  S
C1605      N1612   1.157       .  T
C1606      N1611   1.157       .  T
C1607      N1609   1.156       .  T
C1608      N1610   1.157       .  T
C1613      C1618   1.411       .  A
C1614      C1615   1.402       .  A
C1614      C1619   1.454       .  S
C1615      C1622   1.453       .  S
C1616      C1617   1.412       .  A
C1617      C1618   1.410       .  A
C1617      C1620   1.451       .  S
C1618      C1621   1.451       .  S
C1619      N1626   1.158       .  T
C1620      N1625   1.157       .  T
C1621      N1623   1.157       .  T
C1622      N1624   1.157       .  T
C1627      C1628   1.416       .  A
C1627      C1632   1.411       .  A
C1628      C1629   1.412       .  A
C1628      C1633   1.451       .  S
C1629      C1630   1.407       .  A
C1629      C1636   1.450       .  S
C1630      C1631   1.414       .  A
C1631      C1632   1.412       .  A
C1631      C1634   1.450       .  S
C1632      C1635   1.451       .  S
C1633      N1640   1.157       .  T
C1634      N1639   1.157       .  T
C1635      N1637   1.157       .  T
C1636      N1638   1.157       .  T
C1641      C1642   1.414       .  A
C1641      C1646   1.407       .  A
C1642      C1643   1.411       .  A
C1642      C1647   1.451       .  S
C1643      C1644   1.410       .  A
C1643      C1650   1.450       .  S
C1644      C1645   1.415       .  A
C1645      C1646   1.407       .  A
C1645      C1648   1.452       .  S
C1646      C1649   1.450       .  S
C1647      N1654   1.157       .  T
C1648      N1653   1.157       .  T
C1649      N1651   1.157       .  T
C1650      N1652   1.157       .  T
C1655      C1656   1.422       .  A
C1655      C1660   1.412       .  A
C1656      C1657   1.413       .  A
C1656      C1661   1.448       .  S
C1657      C1658   1.405       .  A
C1657      C1664   1.452       .  S
C1658      C1659   1.415       .  A
C1659      C1660   1.413       .  A
C1659      C1662   1.452       .  S
C1660      C1663   1.450       .  S
C1661      N1668   1.156       .  T
C1662      N1667   1.157       .  T
C1663      N1665   1.157       .  T
C1664      N1666   1.157       .  T
C1669      C1670   1.418       .  A
C1669      C1674   1.411       .  A
C1670      C1671   1.411       .  A
C1670      C1675   1.452       .  S
C1671      C1672   1.407       .  A
C1671      C1678   1.448       .  S
C1672      C1673   1.418       .  A
C1673      C1674   1.415       .  A
C1673      C1676   1.451       .  S
C1674      C1677   1.450       .  S
C1675      N1682   1.157       .  T
C1676      N1681   1.157       .  T
C1677      N1679   1.157       .  T
C1678      N1680   1.156       .  T
C1683      C1684   1.414       .  A
C1683      C1688   1.409       .  A
C1684      C1685   1.410       .  A
C1684      C1689   1.451       .  S
C1685      C1686   1.409       .  A
C1685      C1692   1.450       .  S
C1686      C1687   1.415       .  A
C1687      C1688   1.410       .  A
C1687      C1690   1.452       .  S
C1688      C1691   1.450       .  S
C1689      N1696   1.157       .  T
C1690      N1695   1.157       .  T
C1691      N1693   1.157       .  T
C1692      N1694   1.157       .  T
C1697      C1698   1.412       .  A
C1697      C1702   1.409       .  A
C1698      C1699   1.413       .  A
C1698      C1703   1.450       .  S
C1699      C1700   1.411       .  A
C1699      C1706   1.450       .  S
C1700      C1701   1.412       .  A
C1701      C1702   1.409       .  A
C1701      C1704   1.450       .  S
C1702      C1705   1.451       .  S
C1703      N1710   1.157       .  T
C1704      N1709   1.157       .  T
C1705      N1707   1.157       .  T
C1706      N1708   1.157       .  T
C1711      C1712   1.419       .  A
C1711      C1716   1.407       .  A
C1712      C1713   1.413       .  A
C1712      C1717   1.451       .  S
C1713      C1714   1.411       .  A
C1713      C1720   1.450       .  S
C1714      C1715   1.422       .  A
C1715      C1716   1.409       .  A
C1715      C1718   1.453       .  S
C1716      C1719   1.449       .  S
C1717      N1724   1.157       .  T
C1718      N1723   1.158       .  T
C1719      N1721   1.156       .  T
C1720      N1722   1.157       .  T
C1725      C1726   1.414       .  A
C1725      C1730   1.424       .  A
C1726      C1727   1.418       .  A
C1726      C1731   1.451       .  S
C1727      C1728   1.419       .  A
C1727      C1734   1.452       .  S
C1728      C1729   1.408       .  A
C1729      C1730   1.416       .  A
C1729      C1732   1.449       .  S
C1730      C1733   1.449       .  S
C1731      N1738   1.157       .  T
C1732      N1737   1.157       .  T
C1733      N1735   1.156       .  T
C1734      N1736   1.157       .  T
C1739      C1740   1.407       .  A
C1739      C1744   1.417       .  A
C1740      C1741   1.408       .  A
C1740      C1745   1.450       .  S
C1741      C1742   1.416       .  A
C1741      C1748   1.449       .  S
C1742      C1743   1.411       .  A
C1743      C1744   1.416       .  A
C1743      C1746   1.450       .  S
C1744      C1747   1.450       .  S
C1745      N1752   1.157       .  T
C1746      N1751   1.157       .  T
C1747      N1749   1.157       .  T
C1748      N1750   1.156       .  T
C1753      C1754   1.409       .  A
C1753      C1758   1.414       .  A
C1754      C1755   1.412       .  A
C1754      C1759   1.448       .  S
C1755      C1756   1.410       .  A
C1755      C1762   1.450       .  S
C1756      C1757   1.413       .  A
C1757      C1758   1.416       .  A
C1757      C1760   1.450       .  S
C1758      C1761   1.450       .  S
C1759      N1766   1.157       .  T
C1760      N1765   1.157       .  T
C1761      N1763   1.157       .  T
C1762      N1764   1.157       .  T
C1767      C1768   1.412       .  A
C1767      C1772   1.411       .  A
C1768      C1769   1.412       .  A
C1768      C1773   1.451       .  S
C1769      C1770   1.412       .  A
C1769      C1776   1.449       .  S
C1770      C1771   1.411       .  A
C1771      C1772   1.410       .  A
C1771      C1774   1.451       .  S
C1772      C1775   1.450       .  S
C1773      N1780   1.157       .  T
C1774      N1779   1.157       .  T
C1775      N1777   1.157       .  T
C1776      N1778   1.157       .  T
C1781      C1782   1.410       .  A
C1781      C1786   1.419       .  A
C1782      C1783   1.411       .  A
C1782      C1787   1.451       .  S
C1783      C1784   1.416       .  A
C1783      C1790   1.452       .  S
C1784      C1785   1.407       .  A
C1785      C1786   1.412       .  A
C1785      C1788   1.451       .  S
C1786      C1789   1.451       .  S
C1787      N1794   1.157       .  T
C1788      N1793   1.157       .  T
C1789      N1791   1.157       .  T
C1790      N1792   1.157       .  T
C1795      C1796   1.407       .  A
C1795      C1800   1.415       .  A
C1796      C1797   1.409       .  A
C1796      C1801   1.451       .  S
C1797      C1798   1.414       .  A
C1797      C1804   1.449       .  S
C1798      C1799   1.410       .  A
C1799      C1800   1.414       .  A
C1799      C1802   1.450       .  S
C1800      C1803   1.449       .  S
C1801      N1808   1.157       .  T
C1802      N1807   1.157       .  T
C1803      N1805   1.157       .  T
C1804      N1806   1.156       .  T
C1809      C1810   1.408       .  A
C1809      C1814   1.418       .  A
C1810      C1811   1.409       .  A
C1810      C1815   1.451       .  S
C1811      C1812   1.416       .  A
C1811      C1818   1.451       .  S
C1812      C1813   1.410       .  A
C1813      C1814   1.414       .  A
C1813      C1816   1.450       .  S
C1814      C1817   1.450       .  S
C1815      N1822   1.157       .  T
C1816      N1821   1.157       .  T
C1817      N1819   1.157       .  T
C1818      N1820   1.157       .  T
C1823      C1824   1.417       .  A
C1823      C1828   1.407       .  A
C1824      C1825   1.413       .  A
C1824      C1829   1.452       .  S
C1825      C1826   1.413       .  A
C1825      C1832   1.451       .  S
C1826      C1827   1.419       .  A
C1827      C1828   1.413       .  A
C1827      C1830   1.451       .  S
C1828      C1831   1.449       .  S
C1829      N1836   1.158       .  T
C1830      N1835   1.157       .  T
C1831      N1833   1.156       .  T
C1832      N1834   1.157       .  T
C1837      C1838   1.414       .  A
C1837      C1842   1.407       .  A
C1838      C1839   1.410       .  A
C1838      C1843   1.451       .  S
C1839      C1840   1.409       .  A
C1839      C1846   1.451       .  S
C1840      C1841   1.413       .  A
C1841      C1842   1.410       .  A
C1841      C1844   1.447       .  S
C1842      C1845   1.451       .  S
C1843      N1850   1.157       .  T
C1844      N1849   1.155       .  T
C1845      N1847   1.157       .  T
C1846      N1848   1.157       .  T
C1851      C1852   1.408       .  A
C1851      C1856   1.412       .  A
C1852      C1853   1.409       .  A
C1852      C1857   1.451       .  S
C1853      C1854   1.414       .  A
C1853      C1860   1.451       .  S
C1854      C1855   1.412       .  A
C1855      C1856   1.413       .  A
C1855      C1858   1.451       .  S
C1856      C1859   1.450       .  S
C1857      N1864   1.157       .  T
C1858      N1863   1.157       .  T
C1859      N1861   1.157       .  T
C1860      N1862   1.157       .  T
C1865      C1866   1.415       .  A
C1865      C1870   1.409       .  A
C1866      C1867   1.409       .  A
C1866      C1871   1.451       .  S
C1867      C1868   1.408       .  A
C1867      C1874   1.450       .  S
C1868      C1869   1.411       .  A
C1869      C1870   1.410       .  A
C1869      C1872   1.450       .  S
C1870      C1873   1.451       .  S
C1871      N1878   1.157       .  T
C1872      N1877   1.158       .  T
C1873      N1875   1.157       .  T
C1874      N1876   1.157       .  T
C1879      C1880   1.419       .  A
C1879      C1884   1.410       .  A
C1880      C1881   1.417       .  A
C1880      C1885   1.451       .  S
C1881      C1882   1.410       .  A
C1881      C1888   1.450       .  S
C1882      C1883   1.418       .  A
C1883      C1884   1.416       .  A
C1883      C1886   1.452       .  S
C1884      C1887   1.449       .  S
C1885      N1892   1.157       .  T
C1886      N1891   1.157       .  T
C1887      N1889   1.157       .  T
C1888      N1890   1.157       .  T
C1893      C1894   1.412       .  A
C1893      C1898   1.417       .  A
C1894      C1895   1.413       .  A
C1894      C1899   1.451       .  S
C1895      C1896   1.415       .  A
C1895      C1902   1.451       .  S
C1896      C1897   1.409       .  A
C1897      C1898   1.414       .  A
C1897      C1900   1.451       .  S
C1898      C1901   1.451       .  S
C1899      N1906   1.157       .  T
C1900      N1905   1.157       .  T
C1901      N1903   1.158       .  T
C1902      N1904   1.157       .  T
C1907      C1908   1.409       .  A
C1907      C1912   1.413       .  A
C1908      C1909   1.409       .  A
C1908      C1913   1.451       .  S
C1909      C1910   1.411       .  A
C1909      C1916   1.451       .  S
C1910      C1911   1.409       .  A
C1911      C1912   1.410       .  A
C1911      C1914   1.450       .  S
C1912      C1915   1.451       .  S
C1913      N1920   1.157       .  T
C1914      N1919   1.157       .  T
C1915      N1917   1.157       .  T
C1916      N1918   1.157       .  T
C1921      C1922   1.410       .  A
C1921      C1926   1.418       .  A
C1922      C1923   1.413       .  A
C1922      C1927   1.450       .  S
C1923      C1924   1.419       .  A
C1923      C1930   1.452       .  S
C1924      C1925   1.409       .  A
C1925      C1926   1.411       .  A
C1925      C1928   1.451       .  S
C1926      C1929   1.452       .  S
C1927      N1934   1.157       .  T
C1928      N1933   1.158       .  T
C1929      N1931   1.157       .  T
C1930      N1932   1.157       .  T
C1935      C1936   1.420       .  A
C1935      C1940   1.407       .  A
C1936      C1937   1.412       .  A
C1936      C1941   1.452       .  S
C1937      C1938   1.413       .  A
C1937      C1944   1.452       .  S
C1938      C1939   1.424       .  A
C1939      C1940   1.412       .  A
C1939      C1942   1.449       .  S
C1940      C1943   1.451       .  S
C1941      N1948   1.157       .  T
C1942      N1947   1.157   1_545  T
C1943      N1945   1.157       .  T
C1944      N1946   1.158       .  T
C1949      C1950   1.416       .  A
C1949      C1954   1.413       .  A
C1950      C1951   1.414       .  A
C1950      C1955   1.451       .  S
C1951      C1952   1.409       .  A
C1951      C1958   1.450       .  S
C1952      C1953   1.417       .  A
C1953      C1954   1.417       .  A
C1953      C1956   1.452       .  S
C1954      C1957   1.450       .  S
C1955      N1962   1.157       .  T
C1956      N1961   1.158       .  T
C1957      N1959   1.158       .  T
C1958      N1960   1.157       .  T
