geometry optimzed in LAMMPS
_audit_creation_date              2020-11-30 
_audit_creation_method            'lammps2cif' 
_symmetry_space_group_name_H-M    'P1' 
_symmetry_Int_Tables_number       1 
_symmetry_cell_setting            triclinic 
loop_ 
_symmetry_equiv_pos_as_xyz 
  x,y,z 
_cell_length_a                    54.10201018 
_cell_length_b                    54.0210545658421 
_cell_length_c                    65.96234727398497 
_cell_angle_alpha                 89.63478173907933 
_cell_angle_beta                  90.18887457824245 
_cell_angle_gamma                 119.65939210310046 
loop_ 
_atom_site_label 
_atom_site_type_symbol 
_atom_site_fract_x 
_atom_site_fract_y 
_atom_site_fract_z 
_atom_site_charge 
C1          C  0.07646482  0.42229244  0.91721368     0.85700
C2          C  0.05964653  0.39332463  0.92795457    -0.54600
C3          C  0.07508206  0.38006587  0.93171021     0.08600
C4          C  0.10597838  0.39638785  0.92380455     0.19600
C5          C  0.10318899  0.43912136  0.93032641    -0.55300
C6          C  0.11924310  0.42616630  0.93352360     0.08700
C7          C  0.08718467  0.41471524  0.89795942    -0.54800
C8          C  0.10297139  0.40181340  0.90129376     0.09300
H9          H  0.03736733  0.38274646  0.93163520     0.13800
H10         H  0.11813437  0.38506348  0.92596359    -0.00500
H11         H  0.10947035  0.46032539  0.93584867     0.14100
H12         H  0.08238311  0.41901978  0.88276594     0.13900
C13         C  0.32798826  0.42283214  0.91653726     0.85700
C14         C  0.31785142  0.44055360  0.92867091    -0.54600
C15         C  0.28893714  0.42766574  0.93126739     0.08600
C16         C  0.27268734  0.39774389  0.92164662     0.19600
C17         C  0.31546086  0.39468093  0.92846201    -0.55300
C18         C  0.28665266  0.38122975  0.93079927     0.08700
C19         C  0.31084954  0.41592056  0.89686992    -0.54800
C20         C  0.28215222  0.40281240  0.89927369     0.09300
H21         H  0.33166030  0.46143504  0.93488730     0.13800
H22         H  0.24926430  0.38670275  0.92353979    -0.00500
H23         H  0.32831704  0.38610886  0.93465618     0.14100
H24         H  0.32085090  0.42115720  0.88200984     0.13900
C25         C  0.07580156  0.17270400  0.91625495     0.85700
C26         C  0.10476096  0.18348657  0.92711740    -0.54600
C27         C  0.12011842  0.21254750  0.92968546     0.08600
C28         C  0.10500595  0.22814574  0.92093976     0.19600
C29         C  0.06087797  0.18482208  0.92934882    -0.55300
C30         C  0.07574808  0.21370735  0.93155001     0.08700
C31         C  0.08382940  0.18984760  0.89645788    -0.54800
C32         C  0.09867631  0.21858799  0.89865898     0.09300
H33         H  0.11258859  0.16990184  0.93292543     0.13800
H34         H  0.11713435  0.25163787  0.92248772    -0.00500
H35         H  0.04038756  0.17161839  0.93654788     0.14100
H36         H  0.07881087  0.17976582  0.88166487     0.13900
O37         O  0.15780123  0.38094203  0.77546113    -0.82600
C38         C  0.14122251  0.28969449  0.82660463     0.96700
O39         O  0.12263746  0.29065057  0.81561981    -0.71700
O40         O  0.12255485  0.33685202  0.82523327    -0.75300
Al41       Al  0.12375836  0.32078183  0.80000997     1.49000
C42         C  0.13371831  0.36289287  0.82938418     0.92000
O43         O  0.19822100  0.38250720  0.82284487    -0.81500
O44         O  0.20270915  0.34553222  0.77349678    -0.75100
Al45       Al  0.17743286  0.37976250  0.79911273     1.90100
O46         O  0.21233109  0.35227711  0.81470825    -0.74200
O47         O  0.15703811  0.29441000  0.78023180    -0.74000
O48         O  0.16703486  0.30416334  0.82181075    -0.79700
O49         O  0.12106715  0.30190934  0.77536737    -0.77900
O50         O  0.16143884  0.34193479  0.79857511    -1.14000
O51         O  0.11610038  0.34624964  0.78466348    -0.73200
C52         C  0.13110306  0.36756119  0.77347058     0.97500
C53         C  0.21346836  0.37132609  0.82630158     0.93900
Al54       Al  0.18289742  0.32537168  0.79748378     1.55600
O55         O  0.15032677  0.38125924  0.81680263    -0.77800
C56         C  0.13404738  0.28856426  0.77121201     0.98100
C57         C  0.21616444  0.37239471  0.77193195     0.93000
O58         O  0.20853492  0.38702986  0.78216920    -0.83100
C59         C  0.22539450  0.49511489  0.97581548     0.01500
C60         C  0.25192547  0.49594583  0.97474911     0.01400
C61         C  0.27367919  0.01090580  0.99059128    -0.19100
C62         C  0.26864004  0.02710358  0.00476067     0.01500
C63         C  0.24159024  0.02492812  0.00560923     0.01400
C64         C  0.22062765  0.00756986  0.99162271    -0.19100
H65         H  0.19998834  0.00630291  0.99207008     0.03500
H66         H  0.29424442  0.01199429  0.99040289     0.03500
C67         C  0.16048597  0.08952473  0.06864775     0.85700
C68         C  0.17105445  0.11748604  0.05672253    -0.54600
C69         C  0.19966295  0.13209219  0.05349597     0.08600
C70         C  0.21536965  0.11680236  0.06168536     0.19600
C71         C  0.17102904  0.07269913  0.05575476    -0.55300
C72         C  0.19990546  0.08684566  0.05217783     0.08700
C73         C  0.17903211  0.09731841  0.08773454    -0.54800
C74         C  0.20748437  0.11125032  0.08417440     0.09300
H75         H  0.15706060  0.12514044  0.05126520     0.13800
H76         H  0.23868928  0.12873663  0.05947652    -0.00500
H77         H  0.15747983  0.05152999  0.04990128     0.14100
H78         H  0.17025068  0.09228397  0.10296793     0.13900
C79         C  0.41185852  0.34297817  0.06490031     0.85700
C80         C  0.42990635  0.33205926  0.05433987    -0.54600
C81         C  0.41630272  0.30324759  0.05171122     0.08600
C82         C  0.38571278  0.28741419  0.06041203     0.19600
C83         C  0.38419606  0.33066436  0.05246772    -0.55300
C84         C  0.36993130  0.30154628  0.05025710     0.08700
C85         C  0.40321224  0.32583353  0.08485482    -0.54800
C86         C  0.38913384  0.29704140  0.08266991     0.09300
H87         H  0.45194509  0.34492246  0.05012657     0.13800
H88         H  0.37495946  0.26393948  0.05908507    -0.00500
H89         H  0.37602273  0.34404784  0.04660310     0.14100
H90         H  0.40798987  0.33579439  0.09968711     0.13900
C91         C  0.41255181  0.09101055  0.06761728     0.85700
C92         C  0.38364125  0.07317594  0.05684287    -0.54600
C93         C  0.36896653  0.08749477  0.05356313     0.08600
C94         C  0.38494246  0.11871821  0.06076599     0.19600
C95         C  0.42839711  0.11719597  0.05380139    -0.55300
C96         C  0.41427080  0.13185319  0.05039158     0.08700
C97         C  0.40488074  0.10171546  0.08669666    -0.54800
C98         C  0.39077748  0.11637429  0.08341220     0.09300
H99         H  0.37515158  0.05145679  0.05178798     0.13800
H100        H  0.37374118  0.13089363  0.05776097    -0.00500
H101        H  0.44937062  0.12401184  0.04756824     0.14100
H102        H  0.40996486  0.09752760  0.10184274     0.13900
O103        O  0.36889780  0.17591060  0.21005930    -0.82600
C104        C  0.28031761  0.15170929  0.15433986     0.96700
O105        O  0.28128036  0.13390526  0.16630783    -0.71700
O106        O  0.32981290  0.13731844  0.15996112    -0.75300
Al107      Al  0.31134848  0.13793872  0.18374630     1.49000
C108        C  0.35612050  0.14959026  0.15664103     0.92000
O109        O  0.37146888  0.21447394  0.16099335    -0.81500
O110        O  0.32708328  0.21480048  0.20735908    -0.75100
Al111      Al  0.36813166  0.19455779  0.18555185     1.90100
O112        O  0.33824093  0.22541948  0.16642640    -0.74200
O113        O  0.27963713  0.16781609  0.19942945    -0.74000
O114        O  0.29368059  0.17770647  0.15850857    -0.79700
O115        O  0.29050003  0.13477573  0.20734399    -0.77900
O116        O  0.33024758  0.17585109  0.18440972    -1.14000
O117        O  0.33707047  0.13302944  0.20077298    -0.73200
C118        C  0.35708840  0.14924130  0.21242629     0.97500
C119        C  0.35837805  0.22728037  0.15564422     0.93900
Al120      Al  0.31117940  0.19478806  0.18315146     1.55600
O121        O  0.37324885  0.16822520  0.16882429    -0.77800
C122        C  0.27547116  0.14634847  0.20990361     0.98100
C123        C  0.35322127  0.23010236  0.21089745     0.93000
O124        O  0.37125095  0.22543445  0.20206679    -0.83100
C125        C  0.01653821  0.25415019  0.98247092     0.01500
C126        C  0.01602488  0.28015908  0.98163315     0.01400
C127        C  0.49832612  0.28450569  0.99256523    -0.19100
C128        C  0.48005144  0.26295412  0.00593738     0.01500
C129        C  0.47954588  0.23653738  0.00585554     0.01400
C130        C  0.49728430  0.23254543  0.99236118    -0.19100
H131        H  0.49648106  0.21208487  0.99214394     0.03500
H132        H  0.49840474  0.30463062  0.99242127     0.03500
C133        C  0.22309463  0.25179880  0.97649044     0.01500
C134        C  0.24705363  0.27917722  0.97898256     0.01400
C135        C  0.26764912  0.28280875  0.99355241    -0.19100
C136        C  0.26437862  0.26040505  0.00628646     0.01500
C137        C  0.24015704  0.23319238  0.00396820     0.01400
C138        C  0.21981501  0.22938870  0.98917390    -0.19100
H139        H  0.20086050  0.20870443  0.98768540     0.03500
H140        H  0.28669525  0.30342346  0.99494264     0.03500
C141        C  0.49579297  0.26145248  0.40082082     0.85700
C142        C  0.00860710  0.28906952  0.39003296    -0.54600
C143        C  0.03724991  0.30217029  0.38699232     0.08600
C144        C  0.05121765  0.28516468  0.39498171     0.19600
C145        C  0.00560546  0.24293695  0.38818780    -0.55300
C146        C  0.03446947  0.25567005  0.38503391     0.08700
C147        C  0.01432253  0.26685613  0.42069878    -0.54800
C148        C  0.04282913  0.27945377  0.41747670     0.09300
H149        H  0.49444581  0.29829125  0.38360379     0.13800
H150        H  0.07453140  0.29587662  0.39237258    -0.00500
H151        H  0.49087529  0.22343295  0.38104302     0.14100
H152        H  0.00516480  0.26237170  0.43582213     0.13900
C153        C  0.24468305  0.25731412  0.39812755     0.85700
C154        C  0.21734161  0.24368821  0.38525281    -0.54600
C155        C  0.20363018  0.25923177  0.38416351     0.08600
C156        C  0.21930598  0.28793179  0.39548953     0.19600
C157        C  0.26278714  0.28682697  0.38792865    -0.55300
C158        C  0.24967859  0.30299075  0.38642293     0.08700
C159        C  0.23626580  0.26428764  0.41852030    -0.54800
C160        C  0.22281997  0.27975272  0.41732710     0.09300
H161        H  0.20979961  0.22373195  0.37722703     0.13800
H162        H  0.20852437  0.30082281  0.39483584    -0.00500
H163        H  0.28376269  0.29446608  0.38160045     0.14100
H164        H  0.24078362  0.25757820  0.43297852     0.13900
C165        C  0.24601913  0.01184464  0.40036993     0.85700
C166        C  0.26231827  0.00077955  0.38779829    -0.54600
C167        C  0.25098998  0.47311816  0.38453177     0.08600
C168        C  0.22080370  0.45736340  0.39367505     0.19600
C169        C  0.21713329  0.00054644  0.38947113    -0.55300
C170        C  0.20517512  0.47234031  0.38494876     0.08700
C171        C  0.23927274  0.49470484  0.41889752    -0.54800
C172        C  0.22523150  0.46589050  0.41621523     0.09300
H173        H  0.28376000  0.01450767  0.38218588     0.13800
H174        H  0.20911579  0.43408927  0.39096940    -0.00500
H175        H  0.20745296  0.01304334  0.38518439     0.14100
H176        H  0.24436600  0.50431219  0.43384912     0.13900
O177        O  0.16229482  0.38249873  0.54072640    -0.82600
C178        C  0.19239230  0.31706717  0.49034221     0.96700
O179        O  0.20951328  0.33789863  0.50094490    -0.71700
O180        O  0.20539149  0.38256842  0.49307042    -0.75300
Al181      Al  0.20386129  0.36361844  0.51761191     1.49000
C182        C  0.19291150  0.39639236  0.48904246     0.92000
O183        O  0.12913256  0.34558615  0.49161312    -0.81500
O184        O  0.12526999  0.30356723  0.54110141    -0.75100
Al185      Al  0.14637082  0.36278987  0.51630894     1.90100
O186        O  0.11809617  0.30182351  0.49930208    -0.74200
O187        O  0.17304039  0.30261083  0.53612284    -0.74000
O188        O  0.16634831  0.30373737  0.49470080    -0.79700
O189        O  0.20692219  0.34641803  0.54186841    -0.77900
O190        O  0.16590380  0.34410604  0.51750152    -1.14000
O191        O  0.20656074  0.39401503  0.53408179    -0.73200
C192        C  0.18864688  0.39782020  0.54387473     0.97500
C193        C  0.11658782  0.31949869  0.48739736     0.93900
Al194      Al  0.14732621  0.30614880  0.51789682     1.55600
O195        O  0.17311830  0.39412746  0.50025991    -0.77800
C196        C  0.19483987  0.32013852  0.54584628     0.98100
C197        C  0.10935361  0.31434727  0.54249234     0.93000
O198        O  0.11440002  0.33574909  0.53173966    -0.83100
C199        C  0.16540070  0.09250182  0.24860331     0.85700
C200        C  0.15522292  0.11040204  0.26040855    -0.54600
C201        C  0.12645483  0.09694651  0.26340161     0.08600
C202        C  0.11020154  0.06681573  0.25405105     0.19600
C203        C  0.15336592  0.06491632  0.26111105    -0.55300
C204        C  0.12428106  0.05041162  0.26348736     0.08700
C205        C  0.14799829  0.08447561  0.22904122    -0.54800
C206        C  0.11947873  0.07149121  0.23171122     0.09300
H207        H  0.16882323  0.13151660  0.26637152     0.13800
H208        H  0.08681807  0.05638590  0.25555857    -0.00500
H209        H  0.16710175  0.05747000  0.26740251     0.14100
H210        H  0.15761990  0.08868735  0.21406283     0.13900
C211        C  0.40952170  0.34036920  0.24910614     0.85700
C212        C  0.43787812  0.35098579  0.26058725    -0.54600
C213        C  0.45254683  0.37978371  0.26365037     0.08600
C214        C  0.43834971  0.39580972  0.25420046     0.19600
C215        C  0.39350372  0.35247926  0.26088780    -0.55300
C216        C  0.40805792  0.38143858  0.26321206     0.08700
C217        C  0.41900988  0.35788001  0.22935665    -0.54800
C218        C  0.43385936  0.38664685  0.23178706     0.09300
H219        H  0.44696977  0.33795146  0.26506166     0.13800
H220        H  0.45080095  0.41921568  0.25639014    -0.00500
H221        H  0.37214456  0.33909042  0.26672261     0.14100
H222        H  0.41431733  0.34814965  0.21443993     0.13900
C223        C  0.40993740  0.09162892  0.25190286     0.85700
C224        C  0.39558492  0.06430479  0.26492678    -0.54600
C225        C  0.41061532  0.05011791  0.26630300     0.08600
C226        C  0.43946097  0.06520019  0.25519457     0.19600
C227        C  0.43901716  0.10914760  0.26233779    -0.55300
C228        C  0.45493448  0.09583455  0.26387000     0.08700
C229        C  0.41714196  0.08290326  0.23166749    -0.54800
C230        C  0.43174672  0.06848365  0.23317427     0.09300
H231        H  0.37548268  0.05697181  0.27271490     0.13800
H232        H  0.45163064  0.05371462  0.25631862    -0.00500
H233        H  0.44657036  0.12999878  0.26879644     0.14100
H234        H  0.41129020  0.08815817  0.21716860     0.13900
O235        O  0.49411260  0.04780290  0.11073345    -0.82600
C236        C  0.46993027  0.45397613  0.15850980     0.96700
O237        O  0.45245671  0.45884893  0.14921613    -0.71700
O238        O  0.45349999  0.00455136  0.15780121    -0.75300
Al239      Al  0.45652879  0.48850944  0.13166585     1.49000
C240        C  0.46700290  0.03028285  0.16277296     0.92000
O241        O  0.03382852  0.04639764  0.15755798    -0.81500
O242        O  0.03436178  0.00697770  0.10924170    -0.75100
Al243      Al  0.01324818  0.04524149  0.13448291     1.90100
O244        O  0.04296233  0.01201038  0.15101142    -0.74200
O245        O  0.48773510  0.45854816  0.11195183    -0.74000
O246        O  0.49544887  0.46529755  0.15304323    -0.79700
O247        O  0.45244647  0.46711565  0.10807825    -0.77900
O248        O  0.49352121  0.00573200  0.13300298    -1.14000
O249        O  0.45079120  0.01326791  0.11674841    -0.73200
C250        C  0.46782468  0.03555876  0.10718866     0.97500
C251        C  0.04639123  0.03275964  0.16173322     0.93900
Al252      Al  0.01322918  0.48617920  0.13118343     1.55600
O253        O  0.48767163  0.04807165  0.15229660    -0.77800
C254        C  0.46439606  0.45291839  0.10377321     0.98100
C255        C  0.04851426  0.03356509  0.10670439     0.93000
O256        O  0.04271199  0.04956507  0.11701632    -0.83100
C257        C  0.07976448  0.20322362  0.33097080     0.01500
C258        C  0.10677644  0.20487120  0.33067544     0.01400
C259        C  0.11059598  0.18625127  0.31787389    -0.19100
C260        C  0.08931854  0.16732921  0.30456373     0.01500
C261        C  0.06326413  0.16757598  0.30374731     0.01400
C262        C  0.05877627  0.18502131  0.31726240    -0.19100
H263        H  0.03826113  0.18405546  0.31733820     0.03500
H264        H  0.13053648  0.18607418  0.31856130     0.03500
C265        C  0.31548786  0.43320407  0.34017544     0.01500
C266        C  0.31549729  0.40709804  0.34041525     0.01400
C267        C  0.33338208  0.40332908  0.32689967    -0.19100
C268        C  0.35200667  0.42532625  0.31379365     0.01500
C269        C  0.35339440  0.45218071  0.31468640     0.01400
C270        C  0.33463166  0.45545470  0.32760051    -0.19100
H271        H  0.33469133  0.47556816  0.32771498     0.03500
H272        H  0.33278590  0.38296613  0.32656345     0.03500
C273        C  0.10396720  0.42722281  0.33573986     0.01500
C274        C  0.07825521  0.40101139  0.33573993     0.01400
C275        C  0.05630949  0.39735002  0.32248436    -0.19100
C276        C  0.05956445  0.41873960  0.30869046     0.01500
C277        C  0.08603644  0.44439581  0.30791816     0.01400
C278        C  0.10753909  0.44840478  0.32177489    -0.19100
H279        H  0.12742355  0.46844612  0.32172731     0.03500
H280        H  0.03624968  0.37751163  0.32300686     0.03500
C281        C  0.32765698  0.42444592  0.73378575     0.85700
C282        C  0.33923160  0.45272972  0.72210303    -0.54600
C283        C  0.36798489  0.46697377  0.71940961     0.08600
C284        C  0.38309321  0.45170161  0.72855026     0.19600
C285        C  0.33892650  0.40742632  0.72208221    -0.55300
C286        C  0.36782490  0.42164698  0.71926153     0.08700
C287        C  0.34516919  0.43218466  0.75348642    -0.54800
C288        C  0.37394305  0.44666769  0.75102078     0.09300
H289        H  0.32573315  0.46090188  0.71648632     0.13800
H290        H  0.40646790  0.46354512  0.72619700    -0.00500
H291        H  0.32625676  0.38576822  0.71707356     0.14100
H292        H  0.33539477  0.42672886  0.76841596     0.13900
C293        C  0.07829854  0.17680627  0.73351734     0.85700
C294        C  0.09618829  0.16619119  0.72218581    -0.54600
C295        C  0.08230927  0.13747251  0.71899492     0.08600
C296        C  0.05144226  0.12167754  0.72716473     0.19600
C297        C  0.05129946  0.16589685  0.72041751    -0.55300
C298        C  0.03661741  0.13698566  0.71743153     0.08700
C299        C  0.06871693  0.15843011  0.75280802    -0.54800
C300        C  0.05446995  0.12969120  0.74977429     0.09300
H301        H  0.11773497  0.17941559  0.71686283     0.13800
H302        H  0.03984299  0.09846151  0.72464671    -0.00500
H303        H  0.04390444  0.17991312  0.71453381     0.14100
H304        H  0.07316873  0.16771357  0.76786196     0.13900
C305        C  0.07412125  0.42188288  0.73467858     0.85700
C306        C  0.04681493  0.40643830  0.72203041    -0.54600
C307        C  0.03300023  0.42157541  0.71924257     0.08600
C308        C  0.04801966  0.45134846  0.72901587     0.19600
C309        C  0.09187769  0.45023622  0.72303782    -0.55300
C310        C  0.07834264  0.46584483  0.72002638     0.08700
C311        C  0.06565633  0.43097527  0.75419300    -0.54800
C312        C  0.05192701  0.44594440  0.75137659     0.09300
H313        H  0.03923843  0.38545438  0.71556048     0.13800
H314        H  0.03654741  0.46345830  0.72729468    -0.00500
H315        H  0.11320373  0.45778921  0.71743860     0.14100
H316        H  0.07009716  0.42582397  0.76924877     0.13900
O317        O  0.03677423  0.00986885  0.87432201    -0.82600
C318        C  0.44075797  0.48228047  0.82450307     0.96700
O319        O  0.44359479  0.46445305  0.83531680    -0.71700
O320        O  0.49103382  0.46664688  0.82790312    -0.75300
Al321      Al  0.47440614  0.46892755  0.85225715     1.49000
C322        C  0.01598869  0.47826527  0.82374264     0.92000
O323        O  0.03306025  0.04654073  0.82651398    -0.81500
O324        O  0.49336769  0.04617814  0.87613502    -0.75100
Al325      Al  0.03271474  0.02747051  0.85060883     1.90100
O326        O  0.00090503  0.05790115  0.83459836    -0.74200
O327        O  0.44499316  0.99928336  0.86912385    -0.74000
O328        O  0.45500347  0.00920045  0.82813859    -0.79700
O329        O  0.45457743  0.46600527  0.87656102    -0.77900
O330        O  0.49449282  0.00768728  0.85142575    -1.14000
O331        O  0.00112915  0.46336025  0.86889048    -0.73200
C332        C  0.02350133  0.48064590  0.87821867     0.97500
C333        C  0.02004779  0.05991652  0.82273240     0.93900
Al334      Al  0.47503491  0.02642896  0.85217007     1.55600
O335        O  0.03703347  0.00160059  0.83313828    -0.77800
C336        C  0.43952178  0.47738435  0.87979641     0.98100
C337        C  0.01960813  0.06198523  0.87829713     0.93000
O338        O  0.03681315  0.05803465  0.86771638    -0.83100
C339        C  0.24461801  0.00902434  0.58208845     0.85700
C340        C  0.27302694  0.01981620  0.59376838    -0.54600
C341        C  0.28767633  0.04871382  0.59714731     0.08600
C342        C  0.27229465  0.06406531  0.58852154     0.19600
C343        C  0.22819960  0.01964304  0.59490754    -0.55300
C344        C  0.24213905  0.04829450  0.59790639     0.08700
C345        C  0.25344393  0.02738583  0.56281623    -0.54800
C346        C  0.26799492  0.05607028  0.56593997     0.09300
H347        H  0.28127735  0.00639633  0.59916644     0.13800
H348        H  0.28403658  0.08729256  0.59088155    -0.00500
H349        H  0.20711350  0.00566844  0.60100933     0.14100
H350        H  0.24880131  0.01818127  0.54773260     0.13900
C351        C  0.49638139  0.25927942  0.58244841     0.85700
C352        C  0.48618647  0.27454798  0.59688587    -0.54600
C353        C  0.45747044  0.26072598  0.59995804     0.08600
C354        C  0.44130895  0.23169468  0.58902828     0.19600
C355        C  0.48521150  0.22991033  0.59284991    -0.55300
C356        C  0.45635755  0.21501465  0.59590572     0.08700
C357        C  0.47815160  0.25315117  0.56335915    -0.54800
C358        C  0.44959007  0.23845558  0.56654161     0.09300
H359        H  0.00194936  0.29702682  0.60346067     0.13800
H360        H  0.41796426  0.22028836  0.59157051    -0.00500
H361        H  0.00063269  0.22421163  0.59920641     0.14100
H362        H  0.48727479  0.25937975  0.54827138     0.13900
C363        C  0.24697845  0.26115900  0.58391760     0.85700
C364        C  0.22927616  0.23322815  0.59615207    -0.54600
C365        C  0.24232450  0.21700611  0.59863584     0.08600
C366        C  0.27190213  0.23040398  0.58844969     0.19600
C367        C  0.27512174  0.27611447  0.59562654    -0.55300
C368        C  0.28846728  0.26048281  0.59765370     0.08700
C369        C  0.25349504  0.25104170  0.56409438    -0.54800
C370        C  0.26639329  0.23511844  0.56621424     0.09300
H371        H  0.20858358  0.22662626  0.60264697     0.13800
H372        H  0.28311286  0.21803162  0.58988776    -0.00500
H373        H  0.28381844  0.29737337  0.60188080     0.14100
H374        H  0.24824184  0.25618646  0.54930412     0.13900
O375        O  0.37044108  0.18010880  0.44200393    -0.82600
C376        C  0.29644861  0.19872624  0.49227030     0.96700
O377        O  0.31574007  0.21681819  0.48099258    -0.71700
O378        O  0.36306529  0.21863706  0.49026164    -0.75300
Al379      Al  0.34427796  0.21519007  0.46516667     1.49000
C380        C  0.37836163  0.20790253  0.49481838     0.92000
O381        O  0.33422366  0.14211540  0.49062981    -0.81500
O382        O  0.29084346  0.13495193  0.44152097    -0.75100
Al383      Al  0.35076259  0.16169692  0.46627194     1.90100
O384        O  0.28945416  0.12710837  0.48312859    -0.74200
O385        O  0.28426652  0.17967621  0.44713635    -0.74000
O386        O  0.28603509  0.17258522  0.48864891    -0.79700
O387        O  0.32642399  0.21571109  0.44041422    -0.77900
O388        O  0.32852655  0.17738523  0.46528582    -1.14000
O389        O  0.37695496  0.22228423  0.44946082    -0.73200
C390        C  0.38379456  0.20674695  0.43934754     0.97500
C391        C  0.30817716  0.12701555  0.49452565     0.93900
Al392      Al  0.29079519  0.15545911  0.46500399     1.55600
O393        O  0.37947278  0.19012750  0.48304317    -0.77800
C394        C  0.30006801  0.20178598  0.43682781     0.98100
C395        C  0.30482952  0.12207122  0.43958305     0.93000
O396        O  0.32671132  0.12935028  0.45022389    -0.83100
C397        C  0.43679651  0.36715226  0.66657469     0.01500
C398        C  0.40960519  0.36480722  0.66764553     0.01400
C399        C  0.38745404  0.34474928  0.65551334    -0.19100
C400        C  0.39119866  0.32604995  0.64281962     0.01500
C401        C  0.41844552  0.32860960  0.64154972     0.01400
C402        C  0.44065366  0.34884423  0.65352611    -0.19100
H403        H  0.46109579  0.34968265  0.65312637     0.03500
H404        H  0.36673360  0.34323992  0.65634648     0.03500
C405        C  0.14815396  0.07225184  0.67554079     0.01500
C406        C  0.14475267  0.09635803  0.67298791     0.01400
C407        C  0.16106491  0.11689279  0.65831663    -0.19100
C408        C  0.17996074  0.11357574  0.64562210     0.01500
C409        C  0.18343783  0.08949272  0.64818347     0.01400
C410        C  0.16729034  0.06907280  0.66299424    -0.19100
H411        H  0.16906047  0.04999371  0.66440117     0.03500
H412        H  0.15897106  0.13576778  0.65672656     0.03500
C413        C  0.40735855  0.06893570  0.67170257     0.01500
C414        C  0.43090025  0.09652366  0.67461174     0.01400
C415        C  0.43388407  0.11906398  0.66215721    -0.19100
C416        C  0.41388895  0.11493263  0.64707786     0.01500
C417        C  0.39015041  0.08752944  0.64440216     0.01400
C418        C  0.38699634  0.06501957  0.65690576    -0.19100
H419        H  0.36842031  0.04413817  0.65507461     0.03500
H420        H  0.45259437  0.13991982  0.66372358     0.03500
C421        C  0.27485855  0.22507477  0.54803249    -0.06900
C422        C  0.29076990  0.24531486  0.53311143    -0.18100
C423        C  0.29647362  0.23735088  0.51438074     0.10300
C424        C  0.28722080  0.20824071  0.51048972    -0.06900
C425        C  0.27077188  0.18791091  0.52539045    -0.18100
C426        C  0.26433011  0.19600553  0.54391649     0.10300
S427        S  0.31447232  0.26556359  0.49603547    -0.33100
S428        S  0.24039532  0.16840101  0.56088522    -0.33100
H429        H  0.26178579  0.17399148  0.57520496     0.28300
H430        H  0.29591863  0.25016142  0.48009557     0.28300
H431        H  0.29805424  0.26765472  0.53585435     0.18900
H432        H  0.26283374  0.16547256  0.52267761     0.18900
C433        C  0.36604028  0.30426893  0.63142263    -0.06900
C434        C  0.36660176  0.30465472  0.61014321    -0.18100
C435        C  0.34198536  0.28812414  0.59878453     0.10300
C436        C  0.31572934  0.27199426  0.60874492    -0.06900
C437        C  0.31511289  0.27111177  0.62997818    -0.18100
C438        C  0.34005768  0.28597256  0.64135892     0.10300
S439        S  0.34481905  0.29007787  0.57160761    -0.33100
S440        S  0.33719169  0.28130375  0.66852406    -0.33100
H441        H  0.36535090  0.28722905  0.67155548     0.28300
H442        H  0.32743956  0.26054022  0.56922243     0.28300
H443        H  0.38592319  0.31886483  0.60221734     0.18900
H444        H  0.29493841  0.25923883  0.63777554     0.18900
C445        C  0.19659245  0.13658601  0.63072268    -0.06900
C446        C  0.22592384  0.15360440  0.63370459    -0.18100
C447        C  0.24181881  0.17934698  0.62304969     0.10300
C448        C  0.22791538  0.18858156  0.60914074    -0.06900
C449        C  0.19880363  0.17037063  0.60531024    -0.18100
C450        C  0.18316945  0.14455865  0.61572061     0.10300
S451        S  0.27903028  0.20073770  0.62908860    -0.33100
S452        S  0.14599575  0.12305265  0.60941354    -0.33100
H453        H  0.14274574  0.09698010  0.61641074     0.28300
H454        H  0.28190534  0.17961771  0.63968716     0.28300
H455        H  0.23605641  0.14748679  0.64534876     0.18900
H456        H  0.18798431  0.17637265  0.59412191     0.18900
C457        C  0.39534047  0.21564161  0.51389539    -0.06900
C458        C  0.41620288  0.20749337  0.51569879    -0.18100
C459        C  0.43257746  0.21298548  0.53315969     0.10300
C460        C  0.42935045  0.22827733  0.54926353    -0.06900
C461        C  0.40811716  0.23590117  0.54793212    -0.18100
C462        C  0.39071399  0.22928393  0.53065975     0.10300
S463        S  0.45654019  0.19886791  0.53419123    -0.33100
S464        S  0.36261492  0.23798800  0.53144116    -0.33100
H465        H  0.34154552  0.21058851  0.52544254     0.28300
H466        H  0.45189613  0.19238000  0.55490451     0.28300
H467        H  0.41967363  0.19625303  0.50346850     0.18900
H468        H  0.40521492  0.24726139  0.56035791     0.18900
C469        C  0.44388927  0.27532957  0.61020757    -0.06900
C470        C  0.44464056  0.29862906  0.60008058    -0.18100
C471        C  0.43633262  0.31639481  0.60968954     0.10300
C472        C  0.42439588  0.30921516  0.62936977    -0.06900
C473        C  0.42286882  0.28545367  0.63928389    -0.18100
C474        C  0.43376448  0.26937798  0.63037466     0.10300
S475        S  0.44397165  0.34883907  0.59641341    -0.33100
S476        S  0.43725788  0.24437311  0.64661821    -0.33100
H477        H  0.46023897  0.24485451  0.63642393     0.28300
H478        H  0.43455992  0.36102918  0.61103261     0.28300
H479        H  0.45355400  0.30410242  0.58493666     0.18900
H480        H  0.41531694  0.28088649  0.65480529     0.18900
C481        C  0.42080042  0.13862939  0.63262619    -0.06900
C482        C  0.43838239  0.14146882  0.61620557    -0.18100
C483        C  0.44930503  0.16531829  0.60330685     0.10300
C484        C  0.44186833  0.18674499  0.60656887    -0.06900
C485        C  0.42184626  0.18217424  0.62169359    -0.18100
C486        C  0.41260319  0.15947713  0.63549754     0.10300
S487        S  0.47217136  0.16745170  0.58265258    -0.33100
S488        S  0.39241387  0.16012812  0.65704307    -0.33100
H489        H  0.39558684  0.14069353  0.66944930     0.28300
H490        H  0.46875459  0.14002286  0.58492902     0.28300
H491        H  0.44456311  0.12541855  0.61406610     0.18900
H492        H  0.41464330  0.19737549  0.62363207     0.18900
C493        C  0.29931749  0.10946926  0.51290525    -0.06900
C494        C  0.28821523  0.11783096  0.52889823    -0.18100
C495        C  0.27898434  0.10180488  0.54685348     0.10300
C496        C  0.28042300  0.07641199  0.54863557    -0.06900
C497        C  0.29295736  0.06904588  0.53280697    -0.18100
C498        C  0.30212173  0.08509732  0.51498303     0.10300
S499        S  0.26439633  0.11385136  0.56646033    -0.33100
S500        S  0.31624984  0.07291345  0.49515790    -0.33100
H501        H  0.30424063  0.08076114  0.47916743     0.28300
H502        H  0.27875863  0.14262088  0.56040871     0.28300
H503        H  0.28654979  0.13691311  0.52719150     0.18900
H504        H  0.29509122  0.05017969  0.53412287     0.18900
C505        C  0.31638486  0.06313185  0.60716719    -0.06900
C506        C  0.33571125  0.05365180  0.60236460    -0.18100
C507        C  0.36123993  0.06315428  0.61306521     0.10300
C508        C  0.36739774  0.08185395  0.62950634    -0.06900
C509        C  0.34911453  0.09247751  0.63361648    -0.18100
C510        C  0.32452546  0.08454147  0.62215735     0.10300
S511        S  0.38453227  0.04989005  0.60549143    -0.33100
S512        S  0.30398854  0.10146588  0.62815834    -0.33100
H513        H  0.32497573  0.12421119  0.63946108     0.28300
H514        H  0.40956415  0.07215621  0.61382713     0.28300
H515        H  0.33075590  0.03841021  0.59027629     0.18900
H516        H  0.35326419  0.10587814  0.64666737     0.18900
C517        C  0.22903059  0.06199810  0.60972345    -0.06900
C518        C  0.23546174  0.06653112  0.63041071    -0.18100
C519        C  0.22303614  0.07821453  0.64282668     0.10300
C520        C  0.20190392  0.08359817  0.63480898    -0.06900
C521        C  0.19497339  0.07855320  0.61417467    -0.18100
C522        C  0.20810771  0.06770662  0.60155758     0.10300
S523        S  0.23470867  0.08527077  0.66885611    -0.33100
S524        S  0.19496424  0.05942539  0.57586792    -0.33100
H525        H  0.21586418  0.05427840  0.56780310     0.28300
H526        H  0.22814718  0.10714398  0.67176671     0.28300
H527        H  0.24980253  0.06022471  0.63711566     0.18900
H528        H  0.17814208  0.08172774  0.60805318     0.18900
C529        C  0.04167043  0.45506451  0.76893183    -0.06900
C530        C  0.02083842  0.43387058  0.78130819    -0.18100
C531        C  0.01244967  0.44067624  0.79944506     0.10300
C532        C  0.02508523  0.46947943  0.80543182    -0.06900
C533        C  0.04596813  0.49070694  0.79302858    -0.18100
C534        C  0.05453389  0.48376853  0.77496861     0.10300
S535        S  0.49243977  0.41299503  0.81629598    -0.33100
S536        S  0.08722689  0.01393496  0.76024153    -0.33100
H537        H  0.10135485  0.99836544  0.75700843     0.28300
H538        H  0.50541672  0.42730725  0.83436566     0.28300
H539        H  0.01174754  0.41168788  0.77717093     0.18900
H540        H  0.05958440  0.01533670  0.79644067     0.18900
C541        C  0.00747438  0.41070274  0.70623906    -0.06900
C542        C  0.51214186  0.41597751  0.68474170    -0.18100
C543        C  0.48852912  0.40400999  0.67175418     0.10300
C544        C  0.46107231  0.38638709  0.67987180    -0.06900
C545        C  0.45776351  0.38393729  0.70104678    -0.18100
C546        C  0.48122713  0.39734912  0.71404897     0.10300
S547        S  0.49366377  0.41127957  0.64484385    -0.33100
S548        S  0.97243435  0.38965238  0.74086190    -0.33100
H549        H  0.99578949  0.38607973  0.74554319     0.28300
H550        H  0.52264145  0.43202664  0.64584679     0.28300
H551        H  0.03273798  0.42648523  0.67925544     0.18900
H552        H  0.43705872  0.37016554  0.70757399     0.18900
C553        C  0.13018672  0.04845159  0.68950372    -0.06900
C554        C  0.10108487  0.03201063  0.68538943    -0.18100
C555        C  0.08405842  0.00595485  0.69534922     0.10300
C556        C  0.09317078  0.49464873  0.71012253    -0.06900
C557        C  0.12217156  0.51249033  0.71464065    -0.18100
C558        C  0.14228289  0.03960189  0.70484934     0.10300
S559        S  0.04722486  0.98546610  0.68804358    -0.33100
S560        S  0.17927766  0.06139804  0.71168173    -0.33100
H561        H  0.17947218  0.04392264  0.72751231     0.28300
H562        H  0.04146864  0.50479322  0.67741527     0.28300
H563        H  0.09205316  0.03892103  0.67347453     0.18900
H564        H  0.13204959  0.50614652  0.72631293     0.18900
C565        C  0.04302478  0.10939468  0.76729755    -0.06900
C566        C  0.03099950  0.11664608  0.78352686    -0.18100
C567        C  0.02282093  0.10087171  0.80155310     0.10300
C568        C  0.02687427  0.07712298  0.80382516    -0.06900
C569        C  0.03767820  0.06904873  0.78733975    -0.18100
C570        C  0.04550693  0.08456468  0.76909515     0.10300
S571        S  0.00901877  0.11328047  0.82143293    -0.33100
S572        S  0.05986126  0.07271220  0.74910382    -0.33100
H573        H  0.05291691  0.04610738  0.75759457     0.28300
H574        H  0.98183203  0.08895168  0.82050368     0.28300
H575        H  0.02816367  0.13509931  0.78226486     0.18900
H576        H  0.04020487  0.05045981  0.78883597     0.18900
C577        C  0.00748347  0.12243100  0.70797478    -0.06900
C578        C  0.98850975  0.13212286  0.71332150    -0.18100
C579        C  0.46219550  0.12247520  0.70442076     0.10300
C580        C  0.45451805  0.10235370  0.68880829    -0.06900
C581        C  0.47193527  0.09063997  0.68473082    -0.18100
C582        C  0.49790067  0.10001127  0.69490530     0.10300
S583        S  0.43852323  0.13548396  0.71169596    -0.33100
S584        S  0.51859744  0.08346813  0.68837073    -0.33100
H585        H  0.99808169  0.06086115  0.67603208     0.28300
H586        H  0.45545239  0.15326479  0.72746035     0.28300
H587        H  0.99447641  0.14789989  0.72511885     0.18900
H588        H  0.46577236  0.07506179  0.67275969     0.18900
C589        C  0.12512295  0.10155367  0.68556517    -0.06900
C590        C  0.13163300  0.10819747  0.70611112    -0.18100
C591        C  0.11764027  0.11927976  0.71764923     0.10300
C592        C  0.09626990  0.12349164  0.70846923    -0.06900
C593        C  0.08988896  0.11679808  0.68796947    -0.18100
C594        C  0.10329500  0.10507158  0.67662950     0.10300
S595        S  0.13002808  0.12962052  0.74333746    -0.33100
S596        S  0.09214863  0.09593460  0.65062739    -0.33100
H597        H  0.10164973  0.07616781  0.64827715     0.28300
H598        H  0.10777863  0.13335490  0.75049672     0.28300
H599        H  0.14882060  0.10618452  0.71291503     0.18900
H600        H  0.07515029  0.12185178  0.68045051     0.18900
C601        C  0.39307735  0.45729757  0.76900557    -0.06900
C602        C  0.38602212  0.47062749  0.78443377    -0.18100
C603        C  0.40066333  0.47822555  0.80283774     0.10300
C604        C  0.42322600  0.47275503  0.80606166    -0.06900
C605        C  0.43080079  0.45992188  0.79065960    -0.18100
C606        C  0.41608529  0.45225614  0.77208712     0.10300
S607        S  0.39221958  0.99798510  0.82029958    -0.33100
S608        S  0.42610561  0.43493260  0.75309187    -0.33100
H609        H  0.45105110  0.43884031  0.76268118     0.28300
H610        H  0.39843948  0.98657241  0.83752964     0.28300
H611        H  0.36844111  0.47463688  0.78229603     0.18900
H612        H  0.44845371  0.45614450  0.79319233     0.18900
C613        C  0.38266748  0.49441764  0.70822302    -0.06900
C614        C  0.38926941  0.99388855  0.68744845    -0.18100
C615        C  0.39915791  0.01859581  0.67554726     0.10300
C616        C  0.40250240  0.04395947  0.68430117    -0.06900
C617        C  0.39754085  0.04427006  0.70513833    -0.18100
C618        C  0.38816967  0.01967342  0.71705882     0.10300
S619        S  0.40637092  0.01612467  0.64917796    -0.33100
S620        S  0.38180358  0.02188654  0.74353127    -0.33100
H621        H  0.38672779  0.50447232  0.75002579     0.28300
H622        H  0.42656709  0.04507666  0.64655601     0.28300
H623        H  0.38749577  0.47470104  0.68140853     0.18900
H624        H  0.39996540  0.06351364  0.71202203     0.18900
C625        C  0.38257274  0.40869632  0.70829219    -0.06900
C626        C  0.40029104  0.42349958  0.69184619    -0.18100
C627        C  0.41005027  0.41008941  0.67849765     0.10300
C628        C  0.40262181  0.38142730  0.68200438    -0.06900
C629        C  0.38635262  0.36720963  0.69911851    -0.18100
C630        C  0.37691401  0.38067318  0.71253076     0.10300
S631        S  0.43058235  0.43018303  0.65682556    -0.33100
S632        S  0.35841911  0.36111611  0.73499800    -0.33100
H633        H  0.36591946  0.38511859  0.74712250     0.28300
H634        H  0.42130374  0.40701051  0.64355423     0.28300
H635        H  0.40536628  0.44519831  0.68871383     0.18900
H636        H  0.38104451  0.34535127  0.70207002     0.18900
C637        C  0.43976516  0.05755233  0.21512218    -0.06900
C638        C  0.46726503  0.06114060  0.21442049    -0.10900
C639        C  0.47645794  0.05192747  0.19777349     0.10300
C640        C  0.45822497  0.03961696  0.18099043    -0.06900
C641        C  0.43063407  0.03549822  0.18173397    -0.18100
C642        C  0.42102494  0.04393709  0.19856983     0.10300
S643        S  0.01321706  0.06160331  0.19883324    -0.33100
S644        S  0.38432272  0.03545146  0.19779883    -0.33100
H645        H  0.37966931  0.03120075  0.21870160     0.28300
H646        H  0.00503470  0.03421873  0.19158245     0.28300
H647        H  0.48178526  0.07118648  0.22694595     0.18900
H648        H  0.41634885  0.02542259  0.16908140     0.18900
C649        C  0.48461446  0.11147177  0.27230958    -0.06900
C650        C  0.50114789  0.14060218  0.26744975    -0.18100
C651        C  0.02832227  0.16088887  0.27591335     0.10300
C652        C  0.03929216  0.14909742  0.29012423    -0.06900
C653        C  0.02421916  0.11963340  0.29380183    -0.18100
C654        C  0.99745754  0.10204603  0.28482899     0.10300
S655        S  0.04527862  0.19850479  0.26984083    -0.33100
S656        S  0.97760309  0.06520981  0.29264155    -0.33100
H657        H  0.49626463  0.06270409  0.30721642     0.28300
H658        H  0.07225746  0.20686341  0.27794484     0.28300
H659        H  0.49344627  0.15004521  0.25633834     0.18900
H660        H  0.03251679  0.11082567  0.30493027     0.18900
C661        C  0.37251708  0.47676505  0.30156834    -0.06900
C662        C  0.36817299  0.47424307  0.28055205    -0.18100
C663        C  0.38192059  0.49794709  0.26770485     0.10300
C664        C  0.40007564  0.02362042  0.27854157    -0.06900
C665        C  0.40160106  0.02598586  0.29969203    -0.18100
C666        C  0.38774787  0.00190973  0.31221182     0.10300
S667        S  0.37381544  0.49231072  0.24117935    -0.33100
S668        S  0.39233329  0.00764430  0.33922694    -0.33100
H669        H  0.39108601  0.48170101  0.34198410     0.28300
H670        H  0.41263076  0.00859626  0.24015213     0.28300
H671        H  0.35295936  0.45387213  0.27415532     0.18900
H672        H  0.41322931  0.04688779  0.30651755     0.18900
C673        C  0.44494713  0.40587041  0.21386905    -0.06900
C674        C  0.45856751  0.39895769  0.19855838    -0.18100
C675        C  0.46611625  0.41359324  0.18006750     0.10300
C676        C  0.46062864  0.43619268  0.17685953    -0.06900
C677        C  0.44753342  0.44355170  0.19216922    -0.18100
C678        C  0.43958264  0.42865371  0.21064641     0.10300
S679        S  0.48136347  0.40157572  0.16085552    -0.33100
S680        S  0.42130211  0.43805657  0.22928469    -0.33100
H681        H  0.42335898  0.46192166  0.21902738     0.28300
H682        H  0.46964782  0.40860085  0.14420421     0.28300
H683        H  0.46264124  0.38140471  0.20081578     0.18900
H684        H  0.44369319  0.46119108  0.18960444     0.18900
C685        C  0.03405770  0.41351484  0.29658192    -0.06900
C686        C  0.00954938  0.40839573  0.30730298    -0.18100
C687        C  0.48250408  0.39841142  0.29538332     0.10300
C688        C  0.48038354  0.39383555  0.27425123    -0.06900
C689        C  0.00586234  0.39993761  0.26554234    -0.18100
C690        C  0.03216162  0.40942104  0.27536485     0.10300
S691        S  0.45226317  0.38965272  0.31139628    -0.33100
S692        S  0.06214940  0.41336692  0.26093675    -0.33100
H693        H  0.04981821  0.41020245  0.24163985     0.28300
H694        H  0.43174948  0.36719135  0.29974733     0.28300
H695        H  0.01068871  0.41108893  0.32361029     0.18900
H696        H  0.00409177  0.39601451  0.24938383     0.18900
C697        C  0.36852594  0.41865605  0.29900195    -0.06900
C698        C  0.35370563  0.40075099  0.28276257    -0.18100
C699        C  0.36680206  0.39035164  0.26975720     0.10300
C700        C  0.39523047  0.39698455  0.27344450    -0.06900
C701        C  0.41082510  0.41706270  0.28847029    -0.18100
C702        C  0.39768183  0.42753290  0.30150757     0.10300
S703        S  0.34623744  0.36942532  0.24843775    -0.33100
S704        S  0.41880504  0.45074231  0.32168575    -0.33100
H705        H  0.39692250  0.43987205  0.33619962     0.28300
H706        H  0.36966066  0.37693643  0.23562845     0.28300
H707        H  0.33156468  0.39455211  0.28035265     0.18900
H708        H  0.43293946  0.42338699  0.29087897     0.18900
C709        C  0.09984379  0.06242538  0.21424514    -0.06900
C710        C  0.07866125  0.03377214  0.21307795    -0.18100
C711        C  0.06118889  0.02336020  0.19599422     0.10300
C712        C  0.06532959  0.04176953  0.17947033    -0.06900
C713        C  0.08624366  0.07050314  0.18076897    -0.18100
C714        C  0.10332278  0.08112633  0.19797945     0.10300
S715        S  0.03301299  0.98695114  0.19669079    -0.33100
S716        S  0.12841861  0.11887043  0.19828002    -0.33100
H717        H  0.12931543  0.12203623  0.21940528     0.28300
H718        H  0.01450098  0.48907862  0.18881558     0.28300
H719        H  0.07579353  0.01938462  0.22552020     0.18900
H720        H  0.08894172  0.08491254  0.16837842     0.18900
C721        C  0.10941168  0.02101572  0.27295833    -0.06900
C722        C  0.12217685  0.00396258  0.27019707    -0.18100
C723        C  0.11569181  0.47855207  0.28017430     0.10300
C724        C  0.09229175  0.46806795  0.29355253    -0.06900
C725        C  0.07736311  0.48299474  0.29531716    -0.18100
C726        C  0.08443909  0.00962127  0.28517689     0.10300
S727        S  0.13629800  0.46097147  0.27594659    -0.33100
S728        S  0.06408525  0.02710813  0.28973388    -0.33100
H729        H  0.08793428  0.05385044  0.29231661     0.28300
H730        H  0.11606730  0.43370544  0.28280449     0.28300
H731        H  0.14000711  0.01079381  0.25995813     0.18900
H732        H  0.05943137  0.47507249  0.30560993     0.18900
C733        C  0.11299570  0.11113945  0.27432949    -0.06900
C734        C  0.10223136  0.12565718  0.26284384    -0.18100
C735        C  0.09476539  0.14445851  0.27196564     0.10300
C736        C  0.09502418  0.14661337  0.29335829    -0.06900
C737        C  0.10437567  0.13074986  0.30481137    -0.18100
C738        C  0.11467947  0.11436326  0.29564482     0.10300
S739        S  0.08932455  0.16782553  0.25534605    -0.33100
S740        S  0.13145603  0.10028510  0.31231506    -0.33100
H741        H  0.13773371  0.08488138  0.29828110     0.28300
H742        H  0.10480498  0.19195393  0.26755602     0.28300
H743        H  0.10201482  0.12430519  0.24647015     0.18900
H744        H  0.10534251  0.13257958  0.32118936     0.18900
C745        C  0.19893250  0.42253617  0.55743999    -0.06900
C746        C  0.18823983  0.44109008  0.55436727    -0.18100
C747        C  0.20140803  0.46830382  0.56294380     0.10300
C748        C  0.22610218  0.47743355  0.57527985    -0.06900
C749        C  0.23506036  0.45743423  0.57966715    -0.18100
C750        C  0.22183267  0.43033276  0.57088115     0.10300
S751        S  0.18522748  0.98907583  0.55997677    -0.33100
S752        S  0.23535392  0.40668246  0.57715835    -0.33100
H753        H  0.20931559  0.38137792  0.57448719     0.28300
H754        H  0.16027567  0.96830241  0.55048851     0.28300
H755        H  0.17067169  0.43495799  0.54393716     0.18900
H756        H  0.25294503  0.46260074  0.58940676     0.18900
C757        C  0.20821035  0.30938030  0.56040912    -0.06900
C758        C  0.23755759  0.32037289  0.55880262    -0.18100
C759        C  0.25089669  0.30635236  0.56754164     0.10300
C760        C  0.23454678  0.28064285  0.57882902    -0.06900
C761        C  0.20557340  0.27166871  0.58226461    -0.18100
C762        C  0.19236982  0.28567199  0.57316605     0.10300
S763        S  0.28820748  0.32017291  0.56173995    -0.33100
S764        S  0.15504871  0.27183392  0.57800445    -0.33100
H765        H  0.15558385  0.29792069  0.57510131     0.28300
H766        H  0.29396866  0.34708581  0.55455656     0.28300
H767        H  0.24969742  0.33859567  0.54900554     0.18900
H768        H  0.19234034  0.25282665  0.59106286     0.18900
C769        C  0.02998478  0.27727712  0.57633970    -0.06900
C770        C  0.04453650  0.26185945  0.57358475    -0.18100
C771        C  0.07069821  0.27334189  0.56337014     0.10300
C772        C  0.08372619  0.30165093  0.55594485    -0.06900
C773        C  0.07005899  0.31758991  0.55942134    -0.18100
C774        C  0.04317916  0.30566076  0.56860878     0.10300
S775        S  0.08498792  0.25004792  0.55806720    -0.33100
S776        S  0.02524122  0.32646111  0.56816973    -0.33100
H777        H  0.54422308  0.34978948  0.55965586     0.28300
H778        H  0.06690415  0.22738229  0.57088836     0.28300
H779        H  0.03441018  0.23963268  0.57761149     0.18900
H780        H  0.07981770  0.33926682  0.55380342     0.18900
C781        C  0.26464975  0.04373028  0.40551862    -0.06900
C782        C  0.28882368  0.05074588  0.41751304    -0.18100
C783        C  0.30418147  0.07708458  0.42702765     0.10300
C784        C  0.29441657  0.09704128  0.42578721    -0.06900
C785        C  0.27259589  0.09164435  0.41187078    -0.18100
C786        C  0.25898123  0.06617851  0.40078409     0.10300
S787        S  0.33544470  0.08294558  0.44077935    -0.33100
S788        S  0.23883748  0.06651191  0.37915431    -0.33100
H789        H  0.24716667  0.05054117  0.36702668     0.28300
H790        H  0.35298879  0.10954233  0.43151933     0.28300
H791        H  0.29531209  0.03494305  0.42011567     0.18900
H792        H  0.26655209  0.10774797  0.40918575     0.18900
C793        C  0.21496066  0.44611142  0.43399285    -0.06900
C794        C  0.20436198  0.45395887  0.45079243    -0.18100
C795        C  0.19789400  0.43888160  0.46913890     0.10300
C796        C  0.20069350  0.41433753  0.47056378    -0.06900
C797        C  0.20986091  0.40562686  0.45354199    -0.18100
C798        C  0.21748229  0.42132544  0.43542229     0.10300
S799        S  0.18794247  0.45237934  0.49083578    -0.33100
S800        S  0.23213077  0.41016067  0.41518145    -0.33100
H801        H  0.22559296  0.38350736  0.42339793     0.28300
H802        H  0.18790855  0.47553397  0.48099424     0.28300
H803        H  0.20181005  0.47257095  0.44969922     0.18900
H804        H  0.21088878  0.38620991  0.45445003     0.18900
C805        C  0.26542938  0.45881138  0.37512108    -0.06900
C806        C  0.25465358  0.44421541  0.35690749    -0.18100
C807        C  0.26982711  0.43443595  0.34549508     0.10300
C808        C  0.29613572  0.43843930  0.35288093    -0.06900
C809        C  0.30631824  0.45181938  0.37159638    -0.18100
C810        C  0.29134913  0.46205048  0.38278046     0.10300
S811        S  0.25515465  0.41927190  0.32102315    -0.33100
S812        S  0.30703294  0.47983587  0.40631982    -0.33100
H813        H  0.28130129  0.47267453  0.41605321     0.28300
H814        H  0.27592115  0.41280481  0.31447708     0.28300
H815        H  0.23515607  0.44209207  0.35075986     0.18900
H816        H  0.32667746  0.45531893  0.37715385     0.18900
C817        C  0.12754561  0.43388936  0.35016915    -0.06900
C818        C  0.12956631  0.44940898  0.36765648    -0.18100
C819        C  0.15379433  0.46061907  0.38002006     0.10300
C820        C  0.17706995  0.45698544  0.37453991    -0.06900
C821        C  0.17429115  0.44008042  0.35768212    -0.18100
C822        C  0.14994565  0.42873921  0.34533481     0.10300
S823        S  0.15359716  0.47924263  0.40256049    -0.33100
S824        S  0.14842259  0.40945804  0.32269403    -0.33100
H825        H  0.17440324  0.40988365  0.32561287     0.28300
H826        H  0.17110034  0.47205518  0.41405812     0.28300
H827        H  0.11236871  0.45340502  0.37142804     0.18900
H828        H  0.19186880  0.43700326  0.35354534     0.18900
C829        C  0.25827632  0.23844272  0.40208598    -0.06900
C830        C  0.28787093  0.24946120  0.39985929    -0.18100
C831        C  0.30217489  0.23690066  0.40958329     0.10300
C832        C  0.28662119  0.21236123  0.42180414    -0.06900
C833        C  0.25681576  0.19906252  0.42152323    -0.18100
C834        C  0.24250511  0.21153060  0.41193266     0.10300
S835        S  0.34027527  0.25298427  0.40640482    -0.33100
S836        S  0.20415433  0.19361795  0.41428176    -0.33100
H837        H  0.20019100  0.16851415  0.42374997     0.28300
H838        H  0.34488305  0.27825500  0.39683173     0.28300
H839        H  0.30057193  0.26887007  0.39153214     0.18900
H840        H  0.24454093  0.17960125  0.43010698     0.18900
C841        C  0.21415586  0.28870827  0.43588238    -0.06900
C842        C  0.22881385  0.31769520  0.44078032    -0.18100
C843        C  0.22396274  0.32747376  0.45921770     0.10300
C844        C  0.20235726  0.30800033  0.47241031    -0.06900
C845        C  0.18810608  0.27895496  0.46757242    -0.18100
C846        C  0.19437456  0.26896304  0.44994526     0.10300
S847        S  0.24595150  0.36458419  0.46563294    -0.33100
S848        S  0.17668231  0.23073739  0.44710356    -0.33100
H849        H  0.18160034  0.22992898  0.42640291     0.28300
H850        H  0.26191209  0.37333347  0.44760631     0.28300
H851        H  0.24493429  0.33249438  0.43043588     0.18900
H852        H  0.17211613  0.26374785  0.47782923     0.18900
C853        C  0.13114440  0.22401552  0.34407114    -0.06900
C854        C  0.12711174  0.22371708  0.36511239    -0.18100
C855        C  0.15017510  0.23773596  0.37840523     0.10300
C856        C  0.17828408  0.25017903  0.37089021    -0.06900
C857        C  0.18235468  0.25110043  0.34987305    -0.18100
C858        C  0.15931362  0.23963429  0.33643898     0.10300
S859        S  0.14195714  0.23772771  0.40472846    -0.33100
S860        S  0.16747288  0.24558205  0.30972763    -0.33100
H861        H  0.14147380  0.24348775  0.30393415     0.28300
H862        H  0.16378297  0.26567756  0.40820034     0.28300
H863        H  0.10596271  0.21174053  0.37144654     0.18900
H864        H  0.20379975  0.26107086  0.34385562     0.18900
C865        C  0.26444803  0.33207032  0.37672369    -0.06900
C866        C  0.29342659  0.35017118  0.38120589    -0.18100
C867        C  0.30989108  0.37574610  0.37062125     0.10300
C868        C  0.29761084  0.38350520  0.35468559    -0.06900
C869        C  0.26842754  0.36652450  0.35091249    -0.18100
C870        C  0.25157163  0.34130900  0.36197018     0.10300
S871        S  0.34679392  0.39713852  0.37766676    -0.33100
S872        S  0.21438975  0.32070038  0.35563836    -0.33100
H873        H  0.21245854  0.34241118  0.34509704     0.28300
H874        H  0.34981599  0.42342455  0.37141300     0.28300
H875        H  0.30354569  0.34409293  0.39290057     0.18900
H876        H  0.25905808  0.37225101  0.33855843     0.18900
C877        C  0.46420332  0.24827750  0.40706238    -0.06900
C878        C  0.44415744  0.21953752  0.40289976    -0.18100
C879        C  0.41711635  0.20560792  0.41214597     0.10300
C880        C  0.40937534  0.22063741  0.42586817    -0.06900
C881        C  0.42814419  0.24985809  0.42849154    -0.18100
C882        C  0.45518027  0.26372138  0.41957373     0.10300
S883        S  0.39287686  0.16874608  0.40599607    -0.33100
S884        S  0.47842706  0.30086903  0.42577174    -0.33100
H885        H  0.46062450  0.30398804  0.43977082     0.28300
H886        H  0.41289180  0.16308153  0.39668058     0.28300
H887        H  0.44954105  0.20720703  0.39298845     0.18900
H888        H  0.42222557  0.26176706  0.43857337     0.18900
C889        C  0.06337229  0.28833829  0.43446678    -0.06900
C890        C  0.08595847  0.31639371  0.43472317    -0.18100
C891        C  0.10417519  0.32695371  0.45140087     0.10300
C892        C  0.09945824  0.30924369  0.46859166    -0.06900
C893        C  0.07771537  0.28069368  0.46781052    -0.18100
C894        C  0.05980397  0.26998033  0.45093059     0.10300
S895        S  0.13350713  0.36277768  0.44925982    -0.33100
S896        S  0.03324971  0.23261944  0.45036410    -0.33100
H897        H  0.03828166  0.22550945  0.46990633     0.28300
H898        H  0.15335265  0.35551237  0.45702005     0.28300
H899        H  0.08928667  0.33036364  0.42191951     0.18900
H900        H  0.07449829  0.26677673  0.48060243     0.18900
C901        C  0.05243302  0.32897935  0.37527936    -0.06900
C902        C  0.05745743  0.32685883  0.35474102    -0.18100
C903        C  0.06769332  0.35044103  0.34176893     0.10300
C904        C  0.07304854  0.37703990  0.34945480    -0.06900
C905        C  0.06909175  0.37945004  0.37021954    -0.18100
C906        C  0.05879292  0.35576699  0.38322979     0.10300
S907        S  0.07180127  0.34446202  0.31538472    -0.33100
S908        S  0.05313215  0.36132089  0.40940437    -0.33100
H909        H  0.04629848  0.33451183  0.41717450     0.28300
H910        H  0.08962998  0.37295885  0.30968832     0.28300
H911        H  0.05198508  0.30627301  0.34849272     0.18900
H912        H  0.07263751  0.39961198  0.37614978     0.18900
C913        C  0.07128188  0.21819192  0.34596294    -0.06900
C914        C  0.05113647  0.20149722  0.36072058    -0.18100
C915        C  0.04010622  0.21332281  0.37435020     0.10300
C916        C  0.04829039  0.24255616  0.37280936    -0.06900
C917        C  0.06959326  0.25955401  0.35871768    -0.18100
C918        C  0.08092061  0.24771386  0.34520517     0.10300
S919        S  0.01684887  0.19009705  0.39392049    -0.33100
S920        S  0.10669481  0.27119371  0.32692488    -0.33100
H921        H  0.09877053  0.25098792  0.31138343     0.28300
H922        H  0.52383170  0.21165394  0.40826321     0.28300
H923        H  0.04408209  0.17892702  0.36171301     0.18900
H924        H  0.07674299  0.28209006  0.35760803     0.18900
C925        C  0.36734134  0.13585275  0.22774657    -0.06900
C926        C  0.35284144  0.10595938  0.22902410    -0.18100
C927        C  0.36475989  0.09107541  0.23857419     0.10300
C928        C  0.39216729  0.10633524  0.24764120    -0.06900
C929        C  0.40480480  0.13636173  0.24858712    -0.18100
C930        C  0.39261035  0.15107045  0.23909857     0.10300
S931        S  0.34525747  0.05254766  0.23725796    -0.33100
S932        S  0.41134237  0.18931055  0.24136278    -0.33100
H933        H  0.38655905  0.19073392  0.24548344     0.28300
H934        H  0.32177760  0.04939419  0.22598455     0.28300
H935        H  0.33267038  0.09397187  0.22133515     0.18900
H936        H  0.42518327  0.14927193  0.25556123     0.18900
C937        C  0.36297945  0.25528141  0.22408778    -0.06900
C938        C  0.38220659  0.26008036  0.23990736    -0.18100
C939        C  0.39464753  0.28573715  0.25084968     0.10300
C940        C  0.39047610  0.30850349  0.24420627    -0.06900
C941        C  0.36832803  0.30189478  0.23021230    -0.18100
C942        C  0.35465665  0.27582474  0.22021176     0.10300
S943        S  0.41094017  0.28560079  0.27464261    -0.33100
S944        S  0.32924364  0.27152781  0.20090182    -0.33100
H945        H  0.30681060  0.24776850  0.21056880     0.28300
H946        H  0.40327872  0.30405971  0.28421554     0.28300
H947        H  0.38691086  0.24341972  0.24411845     0.18900
H948        H  0.36298294  0.31808430  0.22591222     0.18900
C949        C  0.25101779  0.13285261  0.22387642    -0.06900
C950        C  0.23357200  0.10331015  0.22276789    -0.18100
C951        C  0.20679710  0.08948538  0.23201619     0.10300
C952        C  0.19702207  0.10561521  0.24307307    -0.06900
C953        C  0.21614517  0.13497700  0.24578625    -0.18100
C954        C  0.24283419  0.14860327  0.23634119     0.10300
S955        S  0.18454666  0.05168870  0.22734634    -0.33100
S956        S  0.26540534  0.18625687  0.24048929    -0.33100
H957        H  0.29107646  0.18572866  0.23900433     0.28300
H958        H  0.20613746  0.04658869  0.22031233     0.28300
H959        H  0.24001454  0.09126035  0.21321738     0.18900
H960        H  0.21031627  0.14817457  0.25438646     0.18900
C961        C  0.43017647  0.07692470  0.07369265    -0.06900
C962        C  0.41922723  0.04729635  0.07164080    -0.18100
C963        C  0.43218183  0.03335160  0.08111996     0.10300
C964        C  0.45671478  0.04905705  0.09304165    -0.06900
C965        C  0.46929885  0.07874099  0.09351303    -0.18100
C966        C  0.45652126  0.09287150  0.08414027     0.10300
S967        S  0.41928200  0.49725369  0.07462839    -0.33100
S968        S  0.47309405  0.13104571  0.08773563    -0.33100
H969        H  0.49976692  0.13552736  0.09428722     0.28300
H970        H  0.44540693  0.49757269  0.07588806     0.28300
H971        H  0.39987788  0.03421453  0.06340250     0.18900
H972        H  0.48819656  0.09082236  0.10262865     0.18900
C973        C  0.38217748  0.12776248  0.10086747    -0.06900
C974        C  0.40195370  0.14076988  0.11666744    -0.18100
C975        C  0.39435317  0.14804677  0.13497982     0.10300
C976        C  0.36622139  0.14256181  0.13778238    -0.06900
C977        C  0.34670810  0.13046903  0.12170064    -0.18100
C978        C  0.35423524  0.12294734  0.10338254     0.10300
S979        S  0.42102076  0.16241000  0.15452022    -0.33100
S980        S  0.32714992  0.10530863  0.08429267    -0.33100
H981        H  0.30604031  0.10962205  0.09327626     0.28300
H982        H  0.42284868  0.18930578  0.15364072     0.28300
H983        H  0.42351522  0.14468645  0.11491562     0.18900
H984        H  0.32519819  0.12656816  0.12356582     0.18900
C985        C  0.42785655  0.15930336  0.03924482    -0.06900
C986        C  0.44810711  0.18353940  0.04958668    -0.18100
C987        C  0.46522206  0.20925134  0.03932799     0.10300
C988        C  0.46004484  0.21176345  0.01856987    -0.06900
C989        C  0.43892272  0.18774545  0.00847570    -0.18100
C990        C  0.42392247  0.16132416  0.01824995     0.10300
S991        S  0.99356281  0.23490689  0.05558942    -0.33100
S992        S  0.40274677  0.13094920  0.00241781    -0.33100
H993        H  0.40474956  0.11049634  0.01445523     0.28300
H994        H  0.01105318  0.25017598  0.03918346     0.28300
H995        H  0.45214636  0.18174076  0.06549561     0.18900
H996        H  0.43587424  0.18903745  0.99232635     0.18900
C997        C  0.42459043  0.37504087  0.06943258    -0.06900
C998        C  0.40836368  0.38216948  0.08231849    -0.18100
C999        C  0.42051391  0.40781306  0.09290382     0.10300
C1000       C  0.44967070  0.42780433  0.09032699    -0.06900
C1001       C  0.46492493  0.42269703  0.07533398    -0.18100
C1002       C  0.45220947  0.39733712  0.06402728     0.10300
S1003       S  0.39831328  0.41200228  0.11125040    -0.33100
S1004       S  0.47043847  0.39759460  0.04118900    -0.33100
H1005       H  0.44524628  0.38001355  0.03044141     0.28300
H1006       H  0.41690186  0.41583673  0.12737255     0.28300
H1007       H  0.38653165  0.36637002  0.08570610     0.18900
H1008       H  0.48660503  0.43893165  0.07201646     0.18900
C1009       C  0.36612576  0.24440471  0.13651636    -0.06900
C1010       C  0.35753219  0.26491565  0.13412152    -0.18100
C1011       C  0.36309520  0.28092423  0.11625787     0.10300
C1012       C  0.37889189  0.27759394  0.10051452    -0.06900
C1013       C  0.38681068  0.25665023  0.10251922    -0.18100
C1014       C  0.38013952  0.23971277  0.12003665     0.10300
S1015       S  0.34828440  0.30430989  0.11416573    -0.33100
S1016       S  0.38844666  0.21136211  0.11964030    -0.33100
H1017       H  0.36080126  0.19090839  0.12568334     0.28300
H1018       H  0.34388863  0.30127247  0.09308888     0.28300
H1019       H  0.34585996  0.26821584  0.14612636     0.18900
H1020       H  0.39828662  0.25342000  0.09033400     0.18900
C1021       C  0.34035894  0.28613394  0.04139585    -0.06900
C1022       C  0.32180996  0.29662285  0.04603765    -0.18100
C1023       C  0.29572039  0.28678122  0.03601395     0.10300
C1024       C  0.28779527  0.26614862  0.02073486    -0.06900
C1025       C  0.30459892  0.25349214  0.01746217    -0.18100
C1026       C  0.33043865  0.26273735  0.02787351     0.10300
S1027       S  0.27263978  0.30074453  0.04266172    -0.33100
S1028       S  0.35038251  0.24497119  0.02261928    -0.33100
H1029       H  0.32925118  0.22211223  0.01149375     0.28300
H1030       H  0.28941796  0.31842573  0.05851552     0.28300
H1031       H  0.32809434  0.31314112  0.05730557     0.18900
H1032       H  0.29806954  0.23724874  0.00594346     0.18900
C1033       C  0.43065451  0.28930630  0.04155579    -0.06900
C1034       C  0.42225642  0.27910340  0.02181178    -0.18100
C1035       C  0.43659006  0.26819176  0.01055498     0.10300
C1036       C  0.46100073  0.26874720  0.01874909    -0.06900
C1037       C  0.47041001  0.28049833  0.03805365    -0.18100
C1038       C  0.45521824  0.29007097  0.04972140     0.10300
S1039       S  0.42426586  0.25644252  0.98508938    -0.33100
S1040       S  0.46954432  0.30486627  0.07426724    -0.33100
H1041       H  0.44370451  0.29920667  0.08309913     0.28300
H1042       H  0.43459221  0.23724612  0.98361296     0.28300
H1043       H  0.40544413  0.28119257  0.01460577     0.18900
H1044       H  0.49043859  0.28347814  0.04375641     0.18900
C1045       C  0.12892927  0.07544974  0.07481572    -0.06900
C1046       C  0.10960372  0.04637806  0.07099523    -0.18100
C1047       C  0.08240601  0.03210984  0.08002775     0.10300
C1048       C  0.07393145  0.04719784  0.09311494    -0.06900
C1049       C  0.09201201  0.07665801  0.09522603    -0.18100
C1050       C  0.11920857  0.09074818  0.08678249     0.10300
S1051       S  0.05915555  0.99472481  0.07477087    -0.33100
S1052       S  0.14163820  0.12809389  0.09293854    -0.33100
H1053       H  0.12495379  0.12966351  0.10864325     0.28300
H1054       H  0.07763911  0.49298548  0.05787817     0.28300
H1055       H  0.11582093  0.03408134  0.06174669     0.18900
H1056       H  0.08548532  0.08875065  0.10460891     0.18900
C1057       C  0.22846836  0.12035809  0.10080311    -0.06900
C1058       C  0.24978699  0.14894180  0.10161812    -0.18100
C1059       C  0.26712023  0.15986797  0.11870561     0.10300
C1060       C  0.26320425  0.14170928  0.13550671    -0.06900
C1061       C  0.24310212  0.11260206  0.13391712    -0.18100
C1062       C  0.22612196  0.10170849  0.11670649     0.10300
S1063       S  0.29414646  0.19685790  0.11765765    -0.33100
S1064       S  0.20258172  0.06369290  0.11569252    -0.33100
H1065       H  0.20363083  0.06168426  0.09449299     0.28300
H1066       H  0.28095207  0.20469006  0.13269108     0.28300
H1067       H  0.25233651  0.16316689  0.08914049     0.18900
H1068       H  0.24050997  0.09805166  0.14617677     0.18900
C1069       C  0.23449096  0.20848592  0.01715741    -0.06900
C1070       C  0.23063068  0.21003810  0.03806437    -0.18100
C1071       C  0.22034953  0.18582074  0.05058561     0.10300
C1072       C  0.21339221  0.15921742  0.04193258    -0.06900
C1073       C  0.21728359  0.15779252  0.02109543    -0.18100
C1074       C  0.22874713  0.18213438  0.00882758     0.10300
S1075       S  0.21533219  0.19057914  0.07705172    -0.33100
S1076       S  0.23532474  0.17806405  0.98260085    -0.33100
H1077       H  0.25728215  0.20629340  0.97971434     0.28300
H1078       H  0.20664305  0.16299746  0.08406970     0.28300
H1079       H  0.23455193  0.23004541  0.04454861     0.18900
H1080       H  0.21085530  0.13735400  0.01419893     0.18900
C1081       C  0.34061331  0.07392433  0.04356258    -0.06900
C1082       C  0.33674572  0.08747408  0.02667397    -0.18100
C1083       C  0.31339905  0.07306551  0.01372522     0.10300
C1084       C  0.29191124  0.04512614  0.01883815    -0.06900
C1085       C  0.29434278  0.03262440  0.03686893    -0.18100
C1086       C  0.31839442  0.04662168  0.04924754     0.10300
S1087       S  0.31407663  0.09108326  0.99034864    -0.33100
S1088       S  0.31924427  0.02854841  0.07211473    -0.33100
H1089       H  0.33672630  0.05334649  0.08318900     0.28300
H1090       H  0.28896030  0.06986301  0.98149156     0.28300
H1091       H  0.35287272  0.10889963  0.02283659     0.18900
H1092       H  0.27783846  0.01131133  0.04093695     0.18900
C1093       C  0.21434425  0.07268419  0.04196427    -0.06900
C1094       C  0.20425707  0.04360734  0.04615990    -0.18100
C1095       C  0.21436275  0.02798586  0.03564926     0.10300
C1096       C  0.23473667  0.04136485  0.02021242    -0.06900
C1097       C  0.24603675  0.07052573  0.01677860    -0.18100
C1098       C  0.23684396  0.08657289  0.02776429     0.10300
S1099       S  0.20061567  0.49381564  0.03974780    -0.33100
S1100       S  0.25332126  0.12406183  0.02201404    -0.33100
H1101       H  0.27657011  0.12642472  0.01091756     0.28300
H1102       H  0.22386397  0.49118558  0.03310420     0.28300
H1103       H  0.18810809  0.03277253  0.05766377     0.18900
H1104       H  0.26108021  0.08052645  0.00460362     0.18900
C1105       C  0.24234871  0.38721696  0.75925949    -0.06900
C1106       C  0.24709740  0.37232714  0.74376254    -0.18100
C1107       C  0.27295257  0.38442833  0.73301223     0.10300
C1108       C  0.29575241  0.41149901  0.73887661    -0.06900
C1109       C  0.28926881  0.42756265  0.75237931    -0.18100
C1110       C  0.26361910  0.41582680  0.76289843     0.10300
S1111       S  0.27301155  0.36569872  0.71060002    -0.33100
S1112       S  0.26129459  0.43814666  0.78216078    -0.33100
H1113       H  0.25702552  0.41869968  0.79790091     0.28300
H1114       H  0.28989585  0.39078499  0.69940923     0.28300
H1115       H  0.23032889  0.35117904  0.73975872     0.18900
H1116       H  0.30557557  0.44902858  0.75621081     0.18900
C1117       C  0.12028992  0.26369185  0.75739365    -0.06900
C1118       C  0.09070798  0.24632094  0.75872834    -0.18100
C1119       C  0.07656529  0.21915756  0.74999542     0.10300
C1120       C  0.09226855  0.20865178  0.73924126    -0.06900
C1121       C  0.12168935  0.22755750  0.73628113    -0.18100
C1122       C  0.13565685  0.25472332  0.74513981     0.10300
S1123       S  0.03871672  0.19751027  0.75463482    -0.33100
S1124       S  0.17320453  0.27690749  0.74033873    -0.33100
H1125       H  0.17315419  0.30287848  0.74160088     0.28300
H1126       H  0.03408228  0.21946680  0.76153875     0.28300
H1127       H  0.07878785  0.25317243  0.76803183     0.18900
H1128       H  0.13462058  0.22136849  0.72775226     0.18900
C1129       C  0.11642674  0.37766177  0.75928706    -0.06900
C1130       C  0.08703089  0.36642645  0.76179142    -0.18100
C1131       C  0.07244414  0.37861707  0.75231332     0.10300
C1132       C  0.08764103  0.40348883  0.74012041    -0.06900
C1133       C  0.11633811  0.41236363  0.73558699    -0.18100
C1134       C  0.13066041  0.39954152  0.74475692     0.10300
S1135       S  0.03481752  0.36333731  0.75768716    -0.33100
S1136       S  0.16700338  0.41224480  0.73723737    -0.33100
H1137       H  0.16452047  0.38504022  0.73747530     0.28300
H1138       H  0.03089807  0.33888117  0.76814069     0.28300
H1139       H  0.07552019  0.34889009  0.77223645     0.18900
H1140       H  0.12840053  0.42979434  0.72528629     0.18900
C1141       C  0.03061214  0.08649279  0.89230672    -0.06900
C1142       C  0.01804971  0.10370395  0.89166481    -0.18100
C1143       C  0.03092818  0.13054015  0.90085427     0.10300
C1144       C  0.05735023  0.14074371  0.91127275    -0.06900
C1145       C  0.06794180  0.12166546  0.91383009    -0.18100
C1146       C  0.05486833  0.09479873  0.90444958     0.10300
S1147       S  0.01382530  0.15189397  0.89776643    -0.33100
S1148       S  0.06928929  0.07121460  0.90797919    -0.33100
H1149       H  0.08898803  0.08711835  0.92319285     0.28300
H1150       H  0.99395308  0.13519315  0.88288207     0.28300
H1151       H  0.99888375  0.09678765  0.88279714     0.18900
H1152       H  0.08723838  0.12787975  0.92210995     0.18900
C1153       C  0.10920413  0.23795319  0.88075525    -0.06900
C1154       C  0.13812198  0.25854461  0.87959864    -0.18100
C1155       C  0.14951046  0.27568540  0.86225392     0.10300
C1156       C  0.13174678  0.27166516  0.84526266    -0.06900
C1157       C  0.10274974  0.25119856  0.84670390    -0.18100
C1158       C  0.09123585  0.23478069  0.86420506     0.10300
S1159       S  0.18640646  0.30285602  0.86329953    -0.33100
S1160       S  0.05322728  0.21104822  0.86545011    -0.33100
H1161       H  0.04666890  0.21509389  0.84548699     0.28300
H1162       H  0.18110112  0.32474443  0.85709241     0.28300
H1163       H  0.15200092  0.26123009  0.89228802     0.18900
H1164       H  0.08874668  0.24834703  0.83410057     0.18900
C1165       C  0.14864702  0.22671676  0.93985736    -0.06900
C1166       C  0.16768103  0.21689877  0.93521230    -0.18100
C1167       C  0.19314097  0.22629373  0.94589291     0.10300
C1168       C  0.19997847  0.24592013  0.96183921    -0.06900
C1169       C  0.18218534  0.25729209  0.96565194    -0.18100
C1170       C  0.15671507  0.24812045  0.95485389     0.10300
S1171       S  0.21563548  0.21187723  0.93874669    -0.33100
S1172       S  0.13421508  0.26248674  0.96196035    -0.33100
H1173       H  0.15333065  0.28363790  0.97522702     0.28300
H1174       H  0.24116570  0.23426616  0.94639916     0.28300
H1175       H  0.16243927  0.20130588  0.92333396     0.18900
H1176       H  0.18760097  0.27228993  0.97795297     0.18900
C1177       C  0.03588727  0.24810952  0.96985360    -0.06900
C1178       C  0.03524680  0.25030458  0.94863530    -0.18100
C1179       C  0.05069307  0.24219560  0.93602252     0.10300
C1180       C  0.06479591  0.22857640  0.94439899    -0.06900
C1181       C  0.06502708  0.22557611  0.96551495    -0.18100
C1182       C  0.05203235  0.23636464  0.97833374     0.10300
S1183       S  0.04995549  0.24794767  0.90922241    -0.33100
S1184       S  0.05642713  0.23359983  0.00527031    -0.33100
H1185       H  0.05173387  0.25585696  0.01110923     0.28300
H1186       H  0.07939454  0.25926423  0.90681153     0.28300
H1187       H  0.51899949  0.25410949  0.93838567     0.18900
H1188       H  0.07556897  0.21480474  0.97207734     0.18900
C1189       C  0.41496867  0.46347878  0.89371576    -0.06900
C1190       C  0.39733112  0.43401083  0.89202446    -0.18100
C1191       C  0.36986732  0.42014694  0.90029274     0.10300
C1192       C  0.35979316  0.43601217  0.91135452    -0.06900
C1193       C  0.37896087  0.46526166  0.91458760    -0.18100
C1194       C  0.40611188  0.47902021  0.90584314     0.10300
S1195       S  0.34722693  0.38274472  0.89445533    -0.33100
S1196       S  0.43051915  0.01607743  0.91049806    -0.33100
H1197       H  0.45636986  0.01599650  0.90857625     0.28300
H1198       H  0.36791208  0.37812809  0.88510348     0.28300
H1199       H  0.40418719  0.42219758  0.88260349     0.18900
H1200       H  0.37285151  0.47840732  0.92295512     0.18900
C1201       C  0.23185072  0.37981009  0.84462209    -0.06900
C1202       C  0.22586018  0.39344000  0.86044865    -0.18100
C1203       C  0.24140851  0.40082298  0.87860965     0.10300
C1204       C  0.26308215  0.39381120  0.88130561    -0.06900
C1205       C  0.26891074  0.38001152  0.86560808    -0.18100
C1206       C  0.25411608  0.37346734  0.84722009     0.10300
S1207       S  0.23445343  0.42066986  0.89749259    -0.33100
S1208       S  0.26513667  0.35832212  0.82715787    -0.33100
H1209       H  0.28905248  0.36003508  0.83697060     0.28300
H1210       H  0.21229879  0.42192856  0.88717850     0.28300
H1211       H  0.20887419  0.39837422  0.85858454     0.18900
H1212       H  0.28563409  0.37474182  0.86772547     0.18900
C1213       C  0.27139939  0.35410058  0.94232456    -0.06900
C1214       C  0.27032753  0.35540261  0.96345488    -0.18100
C1215       C  0.25922844  0.33076389  0.97541330     0.10300
C1216       C  0.25195459  0.30430636  0.96640287    -0.06900
C1217       C  0.25274555  0.30292549  0.94513661    -0.18100
C1218       C  0.26152863  0.32735723  0.93305558     0.10300
S1219       S  0.25466797  0.33455209  0.00205796    -0.33100
S1220       S  0.26130147  0.32356215  0.90597900    -0.33100
H1221       H  0.25046187  0.34201680  0.90230192     0.28300
H1222       H  0.23186628  0.30669679  0.00480682     0.28300
H1223       H  0.27851226  0.37586987  0.97076717     0.18900
H1224       H  0.24727599  0.28294169  0.93788773     0.18900
C1225       C  0.27554796  0.44323575  0.94074820    -0.06900
C1226       C  0.28562467  0.47174672  0.93489328    -0.18100
C1227       C  0.27674766  0.48891348  0.94467887     0.10300
C1228       C  0.25739683  0.47758342  0.96098990    -0.06900
C1229       C  0.24682296  0.44901120  0.96654880    -0.18100
C1230       C  0.25478255  0.43144544  0.95619957     0.10300
S1231       S  0.30194696  0.02754362  0.94299081    -0.33100
S1232       S  0.23951557  0.39484596  0.96413771    -0.33100
H1233       H  0.21774809  0.39392151  0.97629306     0.28300
H1234       H  0.28576234  0.03621919  0.95425274     0.28300
H1235       H  0.30105594  0.48096136  0.92274809     0.18900
H1236       H  0.23362331  0.44084393  0.97989073     0.18900
C1237       C  0.03789719  0.46944941  0.89136286    -0.06900
C1238       C  0.02192941  0.44761089  0.90527992    -0.18100
C1239       C  0.03413644  0.43396992  0.91624477     0.10300
C1240       C  0.06234494  0.44015867  0.91157289    -0.06900
C1241       C  0.07875426  0.46400297  0.89902599    -0.18100
C1242       C  0.06704073  0.47858462  0.88904969     0.10300
S1243       S  0.01362167  0.41270198  0.93743985    -0.33100
S1244       S  0.08967699  0.50646849  0.87169810    -0.33100
H1245       H  0.08692777  0.52748488  0.88230528     0.28300
H1246       H  0.03757598  0.42125723  0.94997937     0.28300
H1247       H  0.99991975  0.44166233  0.90800443     0.18900
H1248       H  0.10080900  0.47040358  0.89599252     0.18900
C1249       C  0.11479643  0.39315675  0.88432134    -0.06900
C1250       C  0.10876818  0.36482890  0.88330240    -0.18100
C1251       C  0.11540972  0.35442736  0.86597936     0.10300
C1252       C  0.12754571  0.37251924  0.84885134    -0.06900
C1253       C  0.13508067  0.40134950  0.85054701    -0.18100
C1254       C  0.12946026  0.41192227  0.86812853     0.10300
S1255       S  0.10849408  0.31824747  0.86715872    -0.33100
S1256       S  0.14205704  0.44971343  0.86905955    -0.33100
H1257       H  0.14611508  0.45212419  0.89018543     0.28300
H1258       H  0.13553529  0.32542397  0.85965259     0.28300
H1259       H  0.09828055  0.35050707  0.89592850     0.18900
H1260       H  0.14549962  0.41597320  0.83806271     0.18900
C1261       C  0.03418205  0.30402298  0.96788042    -0.06900
C1262       C  0.02386058  0.30458306  0.94842198    -0.18100
C1263       C  0.03849187  0.32800495  0.93549892     0.10300
C1264       C  0.06250203  0.35270653  0.94285029    -0.06900
C1265       C  0.07153252  0.35286233  0.96278129    -0.18100
C1266       C  0.05843235  0.32858606  0.97508313     0.10300
S1267       S  0.02450980  0.32554059  0.91026591    -0.33100
S1268       S  0.07196127  0.33127629  0.00046169    -0.33100
H1269       H  0.06336385  0.30230496  0.00262665     0.28300
H1270       H  0.05021700  0.34568170  0.90126881     0.28300
H1271       H  0.50669855  0.28704878  0.94017621     0.18900
H1272       H  0.08775514  0.37253514  0.96928606     0.18900
C1273       C  0.14847552  0.44215260  0.94267024    -0.06900
C1274       C  0.16507817  0.47137694  0.93795791    -0.18100
C1275       C  0.19101947  0.48892476  0.94756920     0.10300
C1276       C  0.20111645  0.47715621  0.96241162    -0.06900
C1277       C  0.18529307  0.44798231  0.96665010    -0.18100
C1278       C  0.15989920  0.43011786  0.95642342     0.10300
S1279       S  0.21576429  0.02361681  0.93977911    -0.33100
S1280       S  0.14276315  0.39262630  0.96216718    -0.33100
H1281       H  0.16563799  0.39274737  0.97247688     0.28300
H1282       H  0.24168692  0.02448211  0.94337293     0.28300
H1283       H  0.15758427  0.48093281  0.92678852     0.18900
H1284       H  0.19208548  0.43930567  0.97884394     0.18900
C1285       C  0.07822936  0.92467490  0.91666437     0.85700
C1286       C  0.06108709  0.89591321  0.92772266    -0.54600
C1287       C  0.07593768  0.88194517  0.93112142     0.08600
C1288       C  0.10658270  0.89742329  0.92271636     0.19600
C1289       C  0.10564079  0.94114703  0.92926838    -0.55300
C1290       C  0.12085554  0.92727421  0.93237083     0.08700
C1291       C  0.08773848  0.91619646  0.89724739    -0.54800
C1292       C  0.10312265  0.90279928  0.90023684     0.09300
H1293       H  0.03894579  0.88592351  0.93178254     0.13800
H1294       H  0.11832495  0.88563461  0.92476332    -0.00500
H1295       H  0.11281668  0.96256986  0.93472304     0.14100
H1296       H  0.08235049  0.92024758  0.88216562     0.13900
C1297       C  0.32982996  0.92258882  0.91554908     0.85700
C1298       C  0.31993056  0.94024160  0.92800282    -0.54600
C1299       C  0.29099555  0.92778057  0.93043570     0.08600
C1300       C  0.27455282  0.89820562  0.92032267     0.19600
C1301       C  0.31677097  0.89414242  0.92709644    -0.55300
C1302       C  0.28796555  0.88113255  0.92924583     0.08700
C1303       C  0.31294058  0.91639211  0.89576834    -0.54800
C1304       C  0.28422717  0.90361078  0.89803715     0.09300
H1305       H  0.33401823  0.96056830  0.93486003     0.13800
H1306       H  0.25113124  0.88724726  0.92192905    -0.00500
H1307       H  0.32925463  0.88514138  0.93328494     0.14100
H1308       H  0.32309235  0.92166462  0.88096352     0.13900
C1309       C  0.07542062  0.67145770  0.91616903     0.85700
C1310       C  0.10432737  0.68292416  0.92718025    -0.54600
C1311       C  0.11975962  0.71213762  0.92883629     0.08600
C1312       C  0.10440878  0.72709819  0.91933691     0.19600
C1313       C  0.06048566  0.68415273  0.92864105    -0.55300
C1314       C  0.07516558  0.71312006  0.92995589     0.08700
C1315       C  0.08331559  0.68745209  0.89592355    -0.54800
C1316       C  0.09806862  0.71629318  0.89733145     0.09300
H1317       H  0.11191976  0.66955969  0.93383969     0.13800
H1318       H  0.11625976  0.75065278  0.92012280    -0.00500
H1319       H  0.04022685  0.67130905  0.93621997     0.14100
H1320       H  0.07852116  0.67648497  0.88147323     0.13900
O1321       O  0.15823652  0.88007134  0.77504836    -0.82600
C1322       C  0.14092459  0.78838392  0.82588725     0.96700
O1323       O  0.12234738  0.78991893  0.81526681    -0.71700
O1324       O  0.12225742  0.83618934  0.82468686    -0.75300
Al1325     Al  0.12366669  0.82007171  0.79956678     1.49000
C1326       C  0.13330129  0.86226081  0.82866924     0.92000
O1327       O  0.19818540  0.88136801  0.82259528    -0.81500
O1328       O  0.20273829  0.84453906  0.77309361    -0.75100
Al1329     Al  0.17758905  0.87880932  0.79877615     1.90100
O1330       O  0.21218863  0.85104933  0.81439317    -0.74200
O1331       O  0.15691987  0.79360970  0.77973011    -0.74000
O1332       O  0.16674718  0.80283606  0.82113418    -0.79700
O1333       O  0.12097090  0.80120764  0.77503804    -0.77900
O1334       O  0.16140344  0.84100327  0.79821533    -1.14000
O1335       O  0.11629461  0.84565046  0.78407092    -0.73200
C1336       C  0.13156893  0.86690027  0.77290040     0.97500
C1337       C  0.21348982  0.87021083  0.82596152     0.93900
Al1338     Al  0.18276981  0.82431562  0.79702649     1.55600
O1339       O  0.15042331  0.88053001  0.81626243    -0.77800
C1340       C  0.13384397  0.78779306  0.77088641     0.98100
C1341       C  0.21634523  0.87139679  0.77164876     0.93000
O1342       O  0.20879362  0.88600971  0.78197570    -0.83100
C1343       C  0.22585066  0.99197913  0.97697574     0.01500
C1344       C  0.25278448  0.99353343  0.97653434     0.01400
C1345       C  0.27385567  0.51386103  0.98791884    -0.19100
C1346       C  0.26976102  0.53041192  0.00235299     0.01500
C1347       C  0.24303636  0.52883671  0.00388973     0.01400
C1348       C  0.22131211  0.51148632  0.99042499    -0.19100
H1349       H  0.20086925  0.51059530  0.99138852     0.03500
H1350       H  0.29418389  0.51446697  0.98722868     0.03500
C1351       C  0.16080719  0.59126836  0.06720459     0.85700
C1352       C  0.17133676  0.61924043  0.05531833    -0.54600
C1353       C  0.20003665  0.63418239  0.05255548     0.08600
C1354       C  0.21589549  0.61930556  0.06112731     0.19600
C1355       C  0.17215627  0.57493657  0.05454606    -0.55300
C1356       C  0.20116478  0.58948984  0.05141947     0.08700
C1357       C  0.17876899  0.59916601  0.08657983    -0.54800
C1358       C  0.20730204  0.61352428  0.08347915     0.09300
H1359       H  0.15726671  0.62654901  0.04942806     0.13800
H1360       H  0.23926592  0.63160363  0.05932843    -0.00500
H1361       H  0.15896336  0.55387554  0.04839471     0.14100
H1362       H  0.16953908  0.59392235  0.10168037     0.13900
C1363       C  0.41317353  0.84393932  0.06353893     0.85700
C1364       C  0.43086081  0.83263178  0.05294230    -0.54600
C1365       C  0.41697909  0.80380281  0.05037863     0.08600
C1366       C  0.38640961  0.78831523  0.05901550     0.19600
C1367       C  0.38558615  0.83186595  0.05092684    -0.55300
C1368       C  0.37097903  0.80267265  0.04871166     0.08700
C1369       C  0.40417532  0.82674681  0.08342842    -0.54800
C1370       C  0.38978935  0.79798488  0.08122797     0.09300
H1371       H  0.45275634  0.84507986  0.04843924     0.13800
H1372       H  0.37554292  0.76485485  0.05785278    -0.00500
H1373       H  0.37780428  0.84549213  0.04489863     0.14100
H1374       H  0.40895844  0.83670418  0.09826458     0.13900
C1375       C  0.41277702  0.59156721  0.06650890     0.85700
C1376       C  0.38380579  0.57340068  0.05585652    -0.54600
C1377       C  0.36885797  0.58747475  0.05270447     0.08600
C1378       C  0.38437351  0.61855314  0.06007246     0.19600
C1379       C  0.42810383  0.61781579  0.05270045    -0.55300
C1380       C  0.41350943  0.63203658  0.04949858     0.08700
C1381       C  0.40504888  0.60198243  0.08574447    -0.54800
C1382       C  0.39045620  0.61618814  0.08263540     0.09300
H1383       H  0.37564170  0.55182551  0.05059377     0.13800
H1384       H  0.37279179  0.63040947  0.05725385    -0.00500
H1385       H  0.44904621  0.62496025  0.04628666     0.14100
H1386       H  0.41046687  0.59798052  0.10083714     0.13900
O1387       O  0.36953552  0.67778714  0.20852539    -0.82600
C1388       C  0.27978090  0.65407812  0.15393171     0.96700
O1389       O  0.28121029  0.63614193  0.16549629    -0.71700
O1390       O  0.32942482  0.63876339  0.15880485    -0.75300
Al1391     Al  0.31132885  0.63987329  0.18275348     1.49000
C1392       C  0.35571001  0.65055034  0.15542975     0.92000
O1393       O  0.37136266  0.71559747  0.15941624    -0.81500
O1394       O  0.32868915  0.71707481  0.20655334    -0.75100
Al1395     Al  0.36851205  0.69611701  0.18401982     1.90100
O1396       O  0.33879107  0.72733578  0.16537987    -0.74200
O1397       O  0.28056001  0.67055028  0.19913325    -0.74000
O1398       O  0.29338492  0.68003867  0.15816803    -0.79700
O1399       O  0.29080322  0.63697643  0.20651318    -0.77900
O1400       O  0.33056761  0.67775179  0.18331636    -1.14000
O1401       O  0.33707347  0.63490044  0.19966587    -0.73200
C1402       C  0.35739706  0.65114801  0.21110243     0.97500
C1403       C  0.35838945  0.72858930  0.15425238     0.93900
Al1404     Al  0.31188174  0.69709610  0.18250340     1.55600
O1405       O  0.37302350  0.66933091  0.16742421    -0.77800
C1406       C  0.27608938  0.64882572  0.20938977     0.98100
C1407       C  0.35494724  0.73221736  0.20968029     0.93000
O1408       O  0.37257656  0.72745832  0.20038494    -0.83100
C1409       C  0.01608468  0.75429873  0.97995281     0.01500
C1410       C  0.01600798  0.78050375  0.97970671     0.01400
C1411       C  0.49935808  0.78465346  0.99237480    -0.19100
C1412       C  0.48075906  0.76301364  0.00552012     0.01500
C1413       C  0.48054573  0.73674055  0.00583985     0.01400
C1414       C  0.49906803  0.73303046  0.99295212    -0.19100
H1415       H  0.49862849  0.71273148  0.99299815     0.03500
H1416       H  0.49927673  0.80470353  0.99203245     0.03500
C1417       C  0.22357482  0.75209418  0.97477385     0.01500
C1418       C  0.24750796  0.77948884  0.97710558     0.01400
C1419       C  0.26847415  0.78339883  0.99140212    -0.19100
C1420       C  0.26556139  0.76121291  0.00416845     0.01500
C1421       C  0.24139016  0.73393865  0.00200650     0.01400
C1422       C  0.22071315  0.72985238  0.98742999    -0.19100
H1423       H  0.20177622  0.70911102  0.98616071     0.03500
H1424       H  0.28745197  0.80410908  0.99261288     0.03500
C1425       C  0.49645508  0.75979294  0.40189509     0.85700
C1426       C  0.01112584  0.79135511  0.39225276    -0.54600
C1427       C  0.03951155  0.80387777  0.38824320     0.08600
C1428       C  0.05323798  0.78601467  0.39501888     0.19600
C1429       C  0.00681145  0.74473355  0.38850777    -0.55300
C1430       C  0.03549558  0.75687129  0.38468987     0.08700
C1431       C  0.01738271  0.76725495  0.42150031    -0.54800
C1432       C  0.04574669  0.77958799  0.41767747     0.09300
H1433       H  0.49519603  0.79754899  0.38606962     0.13800
H1434       H  0.07639867  0.79637234  0.39186736    -0.00500
H1435       H  0.49068562  0.72226371  0.38106294     0.14100
H1436       H  0.00879654  0.76232276  0.43678183     0.13900
C1437       C  0.24191263  0.75523714  0.39922484     0.85700
C1438       C  0.21453202  0.74152958  0.38633444    -0.54600
C1439       C  0.20064769  0.75697021  0.38529404     0.08600
C1440       C  0.21615900  0.78554572  0.39686310     0.19600
C1441       C  0.25973090  0.78482463  0.38908460    -0.55300
C1442       C  0.24653516  0.80090613  0.38782799     0.08700
C1443       C  0.23336381  0.76185482  0.41966509    -0.54800
C1444       C  0.21981312  0.77718994  0.41861479     0.09300
H1445       H  0.20723665  0.72174745  0.37813249     0.13800
H1446       H  0.20531588  0.79837500  0.39641560    -0.00500
H1447       H  0.28053226  0.79250304  0.38244848     0.14100
H1448       H  0.23806347  0.75519592  0.43408102     0.13900
C1449       C  0.24777603  0.51268615  0.39935056     0.85700
C1450       C  0.26459014  0.50189829  0.38713062    -0.54600
C1451       C  0.24836008  0.97199273  0.38515798     0.08600
C1452       C  0.21844856  0.95648447  0.39475612     0.19600
C1453       C  0.21915487  0.50116346  0.38802054    -0.55300
C1454       C  0.20289623  0.97174180  0.38635926     0.08700
C1455       C  0.23785722  0.99389203  0.41996302    -0.54800
C1456       C  0.22350887  0.96503403  0.41732090     0.09300
H1457       H  0.28611634  0.51582302  0.38173877     0.13800
H1458       H  0.20655129  0.93319177  0.39208729    -0.00500
H1459       H  0.20939617  0.51348769  0.38343955     0.14100
H1460       H  0.24330534  0.00350238  0.43490281     0.13900
O1461       O  0.16227774  0.88171645  0.54270742    -0.82600
C1462       C  0.19212767  0.81609772  0.49206373     0.96700
O1463       O  0.20935429  0.83706843  0.50250446    -0.71700
O1464       O  0.20539907  0.88225247  0.49489100    -0.75300
Al1465     Al  0.20378170  0.86273547  0.51940311     1.49000
C1466       C  0.19292346  0.89610443  0.49085044     0.92000
O1467       O  0.12968164  0.84532460  0.49304975    -0.81500
O1468       O  0.12467481  0.80273146  0.54264938    -0.75100
Al1469     Al  0.14647236  0.86225952  0.51804299     1.90100
O1470       O  0.11809066  0.80143558  0.50081403    -0.74200
O1471       O  0.17235114  0.80147517  0.53787203    -0.74000
O1472       O  0.16612230  0.80299773  0.49653886    -0.79700
O1473       O  0.20678876  0.84500579  0.54355690    -0.77900
O1474       O  0.16583112  0.84339376  0.51928150    -1.14000
O1475       O  0.20649652  0.89288465  0.53617571    -0.73200
C1476       C  0.18867820  0.89680349  0.54601515     0.97500
C1477       C  0.11718211  0.81924950  0.48871451     0.93900
Al1478     Al  0.14700138  0.80541796  0.51957426     1.55600
O1479       O  0.17337659  0.89391675  0.50227939    -0.77800
C1480       C  0.19433717  0.81867828  0.54755012     0.98100
C1481       C  0.10864748  0.81340748  0.54374600     0.93000
O1482       O  0.11412867  0.83504417  0.53312213    -0.83100
C1483       C  0.16549836  0.59264341  0.24793013     0.85700
C1484       C  0.15451025  0.60999785  0.25955144    -0.54600
C1485       C  0.12577140  0.59578074  0.26272900     0.08600
C1486       C  0.11026614  0.56542493  0.25359214     0.19600
C1487       C  0.15437719  0.56537033  0.26074929    -0.55300
C1488       C  0.12532756  0.55011492  0.26324122     0.08700
C1489       C  0.14793872  0.58363098  0.22843375    -0.54800
C1490       C  0.11938164  0.56983802  0.23117509     0.09300
H1491       H  0.16766384  0.63121202  0.26550654     0.13800
H1492       H  0.08685324  0.55426021  0.25523504    -0.00500
H1493       H  0.16862454  0.55864160  0.26715803     0.14100
H1494       H  0.15749274  0.58795202  0.21342885     0.13900
C1495       C  0.40989152  0.84084272  0.25044205     0.85700
C1496       C  0.43787723  0.85105979  0.26228081    -0.54600
C1497       C  0.45226297  0.87971351  0.26598933     0.08600
C1498       C  0.43810812  0.89601092  0.25691656     0.19600
C1499       C  0.39331668  0.85212508  0.26243250    -0.55300
C1500       C  0.40752549  0.88097514  0.26542942     0.08700
C1501       C  0.41996900  0.85935938  0.23117709    -0.54800
C1502       C  0.43444010  0.88791772  0.23437218     0.09300
H1503       H  0.44705468  0.83794981  0.26635924     0.13800
H1504       H  0.45029906  0.91933753  0.25955669    -0.00500
H1505       H  0.37185606  0.83824968  0.26791170     0.14100
H1506       H  0.41623148  0.85049208  0.21599274     0.13900
C1507       C  0.41050888  0.59337443  0.24943959     0.85700
C1508       C  0.39605101  0.56606677  0.26243952    -0.54600
C1509       C  0.41084587  0.55168036  0.26368828     0.08600
C1510       C  0.43964531  0.56657025  0.25246709     0.19600
C1511       C  0.43968232  0.61068822  0.25976515    -0.55300
C1512       C  0.45548310  0.59722971  0.26110519     0.08700
C1513       C  0.41746824  0.58463155  0.22910535    -0.54800
C1514       C  0.43193254  0.57005342  0.23049646     0.09300
H1515       H  0.37606144  0.55891208  0.27034654     0.13800
H1516       H  0.45152706  0.55479400  0.25340188    -0.00500
H1517       H  0.44739349  0.63154812  0.26626036     0.14100
H1518       H  0.41168488  0.59009832  0.21465883     0.13900
O1519       O  0.49571137  0.54963981  0.10911021    -0.82600
C1520       C  0.46967719  0.95337717  0.16068860     0.96700
O1521       O  0.45166255  0.95713007  0.15107488    -0.71700
O1522       O  0.45451827  0.50627917  0.15559054    -0.75300
Al1523     Al  0.45532512  0.98692316  0.13368448     1.49000
C1524       C  0.46830839  0.53189034  0.16077042     0.92000
O1525       O  0.03426447  0.54466008  0.15653690    -0.81500
O1526       O  0.03518036  0.50628538  0.10785110    -0.75100
Al1527     Al  0.01380657  0.54404067  0.13348971     1.90100
O1528       O  0.04299424  0.51002787  0.14987061    -0.74200
O1529       O  0.48649914  0.95711946  0.11416816    -0.74000
O1530       O  0.49516298  0.96513744  0.15515767    -0.79700
O1531       O  0.45134907  0.96578654  0.10989579    -0.77900
O1532       O  0.49475503  0.50703333  0.13118215    -1.14000
O1533       O  0.45238590  0.51479398  0.11449180    -0.73200
C1534       C  0.46952884  0.53726811  0.10519531     0.97500
C1535       C  0.04658815  0.53076805  0.16071318     0.93900
Al1536     Al  0.01296931  0.98757721  0.13282024     1.55600
O1537       O  0.48940178  0.54955620  0.15063121    -0.77800
C1538       C  0.46341257  0.95165911  0.10564345     0.98100
C1539       C  0.04915866  0.53292532  0.10546712     0.93000
O1540       O  0.04323187  0.54862496  0.11599329    -0.83100
C1541       C  0.07823161  0.70191189  0.33024110     0.01500
C1542       C  0.10510437  0.70319248  0.33035138     0.01400
C1543       C  0.10884717  0.68416882  0.31788845    -0.19100
C1544       C  0.08759717  0.66503111  0.30460415     0.01500
C1545       C  0.06155356  0.66532172  0.30360384     0.01400
C1546       C  0.05720026  0.68329525  0.31670504    -0.19100
H1547       H  0.03675438  0.68247457  0.31655970     0.03500
H1548       H  0.12872514  0.68391057  0.31879598     0.03500
C1549       C  0.31156214  0.93056295  0.34076084     0.01500
C1550       C  0.31265841  0.90504744  0.34204300     0.01400
C1551       C  0.33126226  0.90146253  0.32913077    -0.19100
C1552       C  0.34983022  0.92326884  0.31588673     0.01500
C1553       C  0.35036014  0.94973865  0.31593389     0.01400
C1554       C  0.33048541  0.95256435  0.32792172    -0.19100
H1555       H  0.32988205  0.97232686  0.32740410     0.03500
H1556       H  0.33127508  0.88139756  0.32937345     0.03500
C1557       C  0.10206774  0.92865278  0.33686693     0.01500
C1558       C  0.07655664  0.90228537  0.33693691     0.01400
C1559       C  0.05443574  0.89829174  0.32375150    -0.19100
C1560       C  0.05747620  0.91953660  0.30988457     0.01500
C1561       C  0.08375844  0.94535897  0.30902054     0.01400
C1562       C  0.10533462  0.94974703  0.32292553    -0.19100
H1563       H  0.12512802  0.96987782  0.32278694     0.03500
H1564       H  0.03452643  0.87829074  0.32429202     0.03500
C1565       C  0.32781713  0.92399756  0.73349271     0.85700
C1566       C  0.33956502  0.95221375  0.72168652    -0.54600
C1567       C  0.36836400  0.96637908  0.71911638     0.08600
C1568       C  0.38329623  0.95103668  0.72848034     0.19600
C1569       C  0.33906846  0.90684082  0.72198876    -0.55300
C1570       C  0.36797914  0.92087959  0.71933099     0.08700
C1571       C  0.34520893  0.93189617  0.75329176    -0.54800
C1572       C  0.37398110  0.94621268  0.75090193     0.09300
H1573       H  0.32617093  0.96045170  0.71597411     0.13800
H1574       H  0.40670846  0.96273065  0.72627831    -0.00500
H1575       H  0.32634264  0.88515888  0.71704980     0.14100
H1576       H  0.33539819  0.92668668  0.76821230     0.13900
C1577       C  0.07830071  0.67517930  0.73546066     0.85700
C1578       C  0.09641558  0.66453460  0.72454790    -0.54600
C1579       C  0.08256337  0.63584610  0.72140366     0.08600
C1580       C  0.05158127  0.62005874  0.72932778     0.19600
C1581       C  0.05157599  0.66419552  0.72212568    -0.55300
C1582       C  0.03696627  0.63529660  0.71921803     0.08700
C1583       C  0.06842943  0.65697590  0.75486191    -0.54800
C1584       C  0.05420840  0.62821977  0.75191107     0.09300
H1585       H  0.11801407  0.67772329  0.71929515     0.13800
H1586       H  0.04003517  0.59683363  0.72685782    -0.00500
H1587       H  0.04431885  0.67821263  0.71600561     0.14100
H1588       H  0.07254506  0.66633987  0.76988264     0.13900
C1589       C  0.07609101  0.92249006  0.73388689     0.85700
C1590       C  0.04849355  0.90745042  0.72148596    -0.54600
C1591       C  0.03516176  0.92308188  0.71887015     0.08600
C1592       C  0.05102703  0.95298167  0.72847321     0.19600
C1593       C  0.09416618  0.95069830  0.72210762    -0.55300
C1594       C  0.08119455  0.96683354  0.71927705     0.08700
C1595       C  0.06823513  0.93196115  0.75348569    -0.54800
C1596       C  0.05516692  0.94759637  0.75079623     0.09300
H1597       H  0.04037594  0.88637213  0.71504290     0.13800
H1598       H  0.04003861  0.96558121  0.72679736    -0.00500
H1599       H  0.11531997  0.95787925  0.71632167     0.14100
H1600       H  0.07258628  0.92657359  0.76849379     0.13900
O1601       O  0.03446832  0.50710996  0.87547485    -0.82600
C1602       C  0.44210689  0.98313176  0.82383046     0.96700
O1603       O  0.44502783  0.96533487  0.83460620    -0.71700
O1604       O  0.49275169  0.96819857  0.82676204    -0.75300
Al1605     Al  0.47607566  0.96968244  0.85124130     1.49000
C1606       C  0.01917316  0.98109086  0.82256733     0.92000
O1607       O  0.03016820  0.54359068  0.82788495    -0.81500
O1608       O  0.49224571  0.54585255  0.87666731    -0.75100
Al1609     Al  0.03027251  0.52466259  0.85186358     1.90100
O1610       O  0.99896419  0.55590456  0.83673714    -0.74200
O1611       O  0.44349220  0.49906110  0.86984264    -0.74000
O1612       O  0.45326866  0.50830658  0.82894380    -0.79700
O1613       O  0.45644483  0.96638203  0.87563815    -0.77900
O1614       O  0.49281522  0.50695021  0.85203323    -1.14000
O1615       O  0.00368262  0.96608144  0.86765960    -0.73200
C1616       C  0.02592295  0.98341345  0.87708597     0.97500
C1617       C  0.01757865  0.55749027  0.82448307     0.93900
Al1618     Al  0.47345262  0.52581427  0.85281547     1.55600
O1619       O  0.03407208  0.49855742  0.83434379    -0.77800
C1620       C  0.44124175  0.97756407  0.87898329     0.98100
C1621       C  0.01853914  0.55955388  0.88000995     0.93000
O1622       O  0.03516061  0.55550432  0.86886046    -0.83100
C1623       C  0.24383430  0.50881758  0.58169924     0.85700
C1624       C  0.27105874  0.51828356  0.59452427    -0.54600
C1625       C  0.28610737  0.54696726  0.59848708     0.08600
C1626       C  0.27216042  0.56345917  0.58949095     0.19600
C1627       C  0.22691369  0.51947685  0.59384479    -0.55300
C1628       C  0.24129705  0.54794177  0.59763334     0.08700
C1629       C  0.25467796  0.52810150  0.56291517    -0.54800
C1630       C  0.26955053  0.55663456  0.56672839     0.09300
H1631       H  0.27855872  0.50425329  0.59996070     0.13800
H1632       H  0.28426469  0.58647895  0.59254755    -0.00500
H1633       H  0.20524313  0.50566271  0.59899252     0.14100
H1634       H  0.25091636  0.51957104  0.54764018     0.13900
C1635       C  0.49693511  0.75908849  0.58175181     0.85700
C1636       C  0.48676082  0.77496794  0.59562896    -0.54600
C1637       C  0.45806434  0.76111424  0.59884740     0.08600
C1638       C  0.44190775  0.73165059  0.58848172     0.19600
C1639       C  0.48584235  0.73006342  0.59271038    -0.55300
C1640       C  0.45700974  0.71525274  0.59579758     0.08700
C1641       C  0.47863331  0.75219815  0.56267450    -0.54800
C1642       C  0.45010561  0.73761110  0.56593196     0.09300
H1643       H  0.00010959  0.79500657  0.60202428     0.13800
H1644       H  0.41858161  0.72024320  0.59112641    -0.00500
H1645       H  0.99852056  0.72184587  0.59884396     0.14100
H1646       H  0.48770399  0.75813938  0.54755585     0.13900
C1647       C  0.24648246  0.75915200  0.58520328     0.85700
C1648       C  0.22868096  0.73098876  0.59711438    -0.54600
C1649       C  0.24169881  0.71474302  0.59943082     0.08600
C1650       C  0.27139983  0.72833201  0.58950456     0.19600
C1651       C  0.27436400  0.77382440  0.59720516    -0.55300
C1652       C  0.28771665  0.75818532  0.59909754     0.08700
C1653       C  0.25343638  0.74958379  0.56528900    -0.54800
C1654       C  0.26618364  0.73348372  0.56729902     0.09300
H1655       H  0.20798243  0.72428573  0.60363656     0.13800
H1656       H  0.28260219  0.71593361  0.59087275    -0.00500
H1657       H  0.28290676  0.79489462  0.60375484     0.14100
H1658       H  0.24847019  0.75511153  0.55053594     0.13900
O1659       O  0.37016882  0.67974275  0.44190441    -0.82600
C1660       C  0.29664662  0.69802527  0.49300227     0.96700
O1661       O  0.31556556  0.71614911  0.48150151    -0.71700
O1662       O  0.36318887  0.71835609  0.49032464    -0.75300
Al1663     Al  0.34404742  0.71469183  0.46540366     1.49000
C1664       C  0.37875702  0.70783712  0.49459715     0.92000
O1665       O  0.33530939  0.64238979  0.49095272    -0.81500
O1666       O  0.29083305  0.63430998  0.44219313    -0.75100
Al1667     Al  0.35111158  0.66157081  0.46636959     1.90100
O1668       O  0.29028467  0.62668976  0.48390710    -0.74200
O1669       O  0.28372504  0.67879920  0.44794117    -0.74000
O1670       O  0.28641355  0.67189805  0.48943317    -0.79700
O1671       O  0.32570118  0.71486068  0.44082348    -0.77900
O1672       O  0.32859871  0.67695775  0.46561761    -1.14000
O1673       O  0.37669282  0.72191956  0.44947222    -0.73200
C1674       C  0.38366789  0.70640968  0.43942387     0.97500
C1675       C  0.30940887  0.62718722  0.49520682     0.93900
Al1676     Al  0.29092057  0.65478317  0.46571852     1.55600
O1677       O  0.38001405  0.69031859  0.48266850    -0.77800
C1678       C  0.29925109  0.70096660  0.43756784     0.98100
C1679       C  0.30503016  0.62167553  0.44008277     0.93000
O1680       O  0.32696001  0.62900127  0.45065666    -0.83100
C1681       C  0.43644272  0.86453355  0.66775300     0.01500
C1682       C  0.40941508  0.86248816  0.66905441     0.01400
C1683       C  0.38704082  0.84259119  0.65698625    -0.19100
C1684       C  0.39061510  0.82415892  0.64389094     0.01500
C1685       C  0.41787471  0.82685259  0.64209198     0.01400
C1686       C  0.44012146  0.84652801  0.65429559    -0.19100
H1687       H  0.46048893  0.84723743  0.65367232     0.03500
H1688       H  0.36635600  0.84110698  0.65808099     0.03500
C1689       C  0.14402036  0.56939914  0.67428027     0.01500
C1690       C  0.14209157  0.59440783  0.67245071     0.01400
C1691       C  0.15896635  0.61506454  0.65806112    -0.19100
C1692       C  0.17731658  0.61116137  0.64520860     0.01500
C1693       C  0.17951824  0.58631183  0.64713370     0.01400
C1694       C  0.16245889  0.56552060  0.66143652    -0.19100
H1695       H  0.16344032  0.54598639  0.66252804     0.03500
H1696       H  0.15793265  0.63457090  0.65692392     0.03500
C1697       C  0.40769139  0.56828523  0.67064420     0.01500
C1698       C  0.43144340  0.59573727  0.67305708     0.01400
C1699       C  0.43455505  0.61807846  0.66037826    -0.19100
C1700       C  0.41429150  0.61385577  0.64555407     0.01500
C1701       C  0.39046774  0.58641631  0.64318389     0.01400
C1702       C  0.38730930  0.56410021  0.65589504    -0.19100
H1703       H  0.36859188  0.54322711  0.65439640     0.03500
H1704       H  0.45338774  0.63889984  0.66173303     0.03500
C1705       C  0.27470743  0.72357878  0.54905591    -0.06900
C1706       C  0.29141262  0.74411325  0.53454120    -0.18100
C1707       C  0.29745612  0.73652848  0.51578047     0.10300
C1708       C  0.28751688  0.70741174  0.51136605    -0.06900
C1709       C  0.27024160  0.68678170  0.52585323    -0.18100
C1710       C  0.26355682  0.69453470  0.54443239     0.10300
S1711       S  0.31703915  0.76533771  0.49816020    -0.33100
S1712       S  0.23851410  0.66657830  0.56070786    -0.33100
H1713       H  0.25872735  0.67206835  0.57595666     0.28300
H1714       H  0.29832171  0.75149296  0.48194263     0.28300
H1715       H  0.29912459  0.76644788  0.53763432     0.18900
H1716       H  0.26182259  0.66434866  0.52277159     0.18900
C1717       C  0.36533844  0.80255166  0.63256417    -0.06900
C1718       C  0.36556343  0.80367668  0.61131075    -0.18100
C1719       C  0.34099086  0.78693095  0.60003391     0.10300
C1720       C  0.31503750  0.76975315  0.61005817    -0.06900
C1721       C  0.31467224  0.76829191  0.63128762    -0.18100
C1722       C  0.33966367  0.78354822  0.64258026     0.10300
S1723       S  0.34342950  0.78999915  0.57288211    -0.33100
S1724       S  0.33717070  0.77855980  0.66972791    -0.33100
H1725       H  0.36558084  0.78521032  0.67256566     0.28300
H1726       H  0.32733723  0.76040635  0.57009845     0.28300
H1727       H  0.38446634  0.81856364  0.60338869     0.18900
H1728       H  0.29466066  0.75582647  0.63915468     0.18900
C1729       C  0.19462239  0.63423117  0.63066832    -0.06900
C1730       C  0.22389634  0.65081608  0.63410341    -0.18100
C1731       C  0.24036074  0.67657022  0.62362373     0.10300
C1732       C  0.22701048  0.68613001  0.60949618    -0.06900
C1733       C  0.19800514  0.66824614  0.60517322    -0.18100
C1734       C  0.18181693  0.64249044  0.61542973     0.10300
S1735       S  0.27753135  0.69748031  0.62998547    -0.33100
S1736       S  0.14469419  0.62157853  0.60878659    -0.33100
H1737       H  0.14081369  0.59522663  0.61569643     0.28300
H1738       H  0.27935480  0.67701400  0.64221745     0.28300
H1739       H  0.23348763  0.64429600  0.64589104     0.18900
H1740       H  0.18767102  0.67456129  0.59380082     0.18900
C1741       C  0.39586840  0.71547263  0.51350976    -0.06900
C1742       C  0.41751801  0.70837548  0.51468177    -0.18100
C1743       C  0.43378556  0.71337771  0.53210028     0.10300
C1744       C  0.42986523  0.72748629  0.54870684    -0.06900
C1745       C  0.40790577  0.73411584  0.54794535    -0.18100
C1746       C  0.39041047  0.72763498  0.53077044     0.10300
S1747       S  0.45819714  0.69978869  0.53248095    -0.33100
S1748       S  0.36095771  0.73423462  0.53236647    -0.33100
H1749       H  0.34100156  0.70686545  0.52550179     0.28300
H1750       H  0.45327454  0.69237188  0.55303045     0.28300
H1751       H  0.42155727  0.69815815  0.50203289     0.18900
H1752       H  0.40443231  0.74448806  0.56076366     0.18900
C1753       C  0.44438555  0.77537833  0.60944666    -0.06900
C1754       C  0.44376264  0.79810329  0.59946381    -0.18100
C1755       C  0.43499647  0.81529724  0.60945083     0.10300
C1756       C  0.42379777  0.80787433  0.62935271    -0.06900
C1757       C  0.42364774  0.78464960  0.63906790    -0.18100
C1758       C  0.43527730  0.76947584  0.62982906     0.10300
S1759       S  0.44144524  0.84754960  0.59642569    -0.33100
S1760       S  0.44136974  0.74603419  0.64598035    -0.33100
H1761       H  0.46456572  0.74777866  0.63526305     0.28300
H1762       H  0.43214275  0.85926491  0.61148543     0.28300
H1763       H  0.45203109  0.80367207  0.58415075     0.18900
H1764       H  0.41685375  0.78003795  0.65475616     0.18900
C1765       C  0.42075203  0.63771033  0.63136941    -0.06900
C1766       C  0.43754349  0.64053654  0.61445403    -0.18100
C1767       C  0.44894158  0.66498156  0.60212501     0.10300
C1768       C  0.44242336  0.68685026  0.60627139    -0.06900
C1769       C  0.42312882  0.68240607  0.62191328    -0.18100
C1770       C  0.41376160  0.65922593  0.63530973     0.10300
S1771       S  0.47163625  0.66751228  0.58125919    -0.33100
S1772       S  0.39509435  0.66012739  0.65772637    -0.33100
H1773       H  0.39566669  0.63814895  0.66877314     0.28300
H1774       H  0.46578576  0.63908210  0.58182263     0.28300
H1775       H  0.44302263  0.62411577  0.61160132     0.18900
H1776       H  0.41661126  0.69800692  0.62452835     0.18900
C1777       C  0.30129302  0.61017503  0.51385731    -0.06900
C1778       C  0.29152008  0.61935769  0.53020872    -0.18100
C1779       C  0.28269583  0.60361792  0.54833832     0.10300
C1780       C  0.28320057  0.57767076  0.54988829    -0.06900
C1781       C  0.29519844  0.56996895  0.53388000    -0.18100
C1782       C  0.30381875  0.58564839  0.51589024     0.10300
S1783       S  0.26980279  0.61675627  0.56843204    -0.33100
S1784       S  0.31674076  0.57267064  0.49577743    -0.33100
H1785       H  0.30426026  0.58038251  0.48003011     0.28300
H1786       H  0.28207747  0.64494097  0.56119844     0.28300
H1787       H  0.29042255  0.63875853  0.52858591     0.18900
H1788       H  0.29697596  0.55089308  0.53507380     0.18900
C1789       C  0.31475872  0.56056760  0.60839789    -0.06900
C1790       C  0.33334381  0.55023605  0.60345065    -0.18100
C1791       C  0.35942089  0.56002514  0.61334731     0.10300
C1792       C  0.36728536  0.58050655  0.62875588    -0.06900
C1793       C  0.34968762  0.59189504  0.63299833    -0.18100
C1794       C  0.32393929  0.58278928  0.62281639     0.10300
S1795       S  0.38115258  0.54471462  0.60626594    -0.33100
S1796       S  0.30281726  0.59851897  0.63030665    -0.33100
H1797       H  0.32490076  0.62306338  0.63937798     0.28300
H1798       H  0.40718043  0.56771848  0.61267641     0.28300
H1799       H  0.32743745  0.53414623  0.59186907     0.18900
H1800       H  0.35508214  0.60647554  0.64546029     0.18900
C1801       C  0.22795038  0.56153454  0.60925781    -0.06900
C1802       C  0.23306062  0.56488999  0.63015125    -0.18100
C1803       C  0.21949389  0.57545272  0.64247918     0.10300
C1804       C  0.19853988  0.58080000  0.63408639    -0.06900
C1805       C  0.19318553  0.57726635  0.61317928    -0.18100
C1806       C  0.20763748  0.56777796  0.60065331     0.10300
S1807       S  0.22965179  0.58133031  0.66883542    -0.33100
S1808       S  0.19725561  0.56217369  0.57429044    -0.33100
H1809       H  0.21948848  0.55867978  0.56679575     0.28300
H1810       H  0.22282086  0.60299579  0.67186239     0.28300
H1811       H  0.24716202  0.55844042  0.63707062     0.18900
H1812       H  0.17678392  0.58082087  0.60668157     0.18900
C1813       C  0.04539221  0.95708276  0.76840762    -0.06900
C1814       C  0.02444034  0.93610721  0.78081795    -0.18100
C1815       C  0.01586149  0.94321290  0.79871872     0.10300
C1816       C  0.02854764  0.97210381  0.80450545    -0.06900
C1817       C  0.04970956  0.99312431  0.79213751    -0.18100
C1818       C  0.05842770  0.98586784  0.77427664     0.10300
S1819       S  0.49345768  0.91434030  0.81560416    -0.33100
S1820       S  0.08288732  0.51217289  0.76083879    -0.33100
H1821       H  0.09753270  0.49715129  0.75745188     0.28300
H1822       H  0.50648641  0.92845132  0.83371912     0.28300
H1823       H  0.01521322  0.91385703  0.77677921     0.18900
H1824       H  0.05578485  0.51285975  0.79747685     0.18900
C1825       C  0.00931800  0.91251229  0.70618127    -0.06900
C1826       C  0.51182064  0.91342069  0.68568976    -0.18100
C1827       C  0.48819744  0.90114089  0.67278402     0.10300
C1828       C  0.46083086  0.88347677  0.68100585    -0.06900
C1829       C  0.45760838  0.88107592  0.70219237    -0.18100
C1830       C  0.48111411  0.89483977  0.71511850     0.10300
S1831       S  0.49323730  0.90828160  0.64585391    -0.33100
S1832       S  0.97558325  0.89036282  0.74108120    -0.33100
H1833       H  0.99224275  0.91958601  0.74516026     0.28300
H1834       H  0.52230136  0.92878912  0.64671954     0.28300
H1835       H  0.03386658  0.92841840  0.67891382     0.18900
H1836       H  0.43692126  0.86728120  0.70876584     0.18900
C1837       C  0.12627178  0.54616000  0.68862861    -0.06900
C1838       C  0.09698829  0.52986211  0.68513134    -0.18100
C1839       C  0.08017338  0.50428556  0.69573460     0.10300
C1840       C  0.09658900  0.99584367  0.70972082    -0.06900
C1841       C  0.12545814  0.01351339  0.71473581    -0.18100
C1842       C  0.13877765  0.53794930  0.70404460     0.10300
S1843       S  0.04302113  0.48380844  0.68919943    -0.33100
S1844       S  0.17606698  0.55976937  0.71004519    -0.33100
H1845       H  0.17735357  0.54166633  0.72491461     0.28300
H1846       H  0.04616098  0.00622983  0.67568137     0.28300
H1847       H  0.08764176  0.53644958  0.67321720     0.18900
H1848       H  0.13501798  0.00660768  0.72628072     0.18900
C1849       C  0.04228487  0.60792361  0.76940336    -0.06900
C1850       C  0.02945967  0.61481031  0.78531738    -0.18100
C1851       C  0.02035254  0.59855786  0.80315810     0.10300
C1852       C  0.02455382  0.57489478  0.80561287    -0.06900
C1853       C  0.03618170  0.56728350  0.78938021    -0.18100
C1854       C  0.04475364  0.58313463  0.77133053     0.10300
S1855       S  0.00495302  0.61010239  0.82248426    -0.33100
S1856       S  0.06033419  0.57184146  0.75187954    -0.33100
H1857       H  0.04917246  0.54362610  0.75879227     0.28300
H1858       H  0.97847582  0.58486649  0.82155786     0.28300
H1859       H  0.02660289  0.63323888  0.78390853     0.18900
H1860       H  0.03896952  0.54885566  0.79092321     0.18900
C1861       C  0.00809512  0.62085133  0.70942467    -0.06900
C1862       C  0.98932275  0.63095903  0.71431208    -0.18100
C1863       C  0.46261608  0.62198791  0.70259478     0.10300
C1864       C  0.45491077  0.60159549  0.68721135    -0.06900
C1865       C  0.47220559  0.58972254  0.68322053    -0.18100
C1866       C  0.49821770  0.59926812  0.69328374     0.10300
S1867       S  0.43937652  0.63576362  0.70930516    -0.33100
S1868       S  0.51951309  0.58343779  0.68645339    -0.33100
H1869       H  0.99969540  0.56039336  0.67622794     0.28300
H1870       H  0.45518449  0.65185693  0.72605826     0.28300
H1871       H  0.99513713  0.64673662  0.72609539     0.18900
H1872       H  0.46597579  0.57402398  0.67134459     0.18900
C1873       C  0.12362273  0.60043094  0.68564445    -0.06900
C1874       C  0.13071835  0.60620909  0.70621604    -0.18100
C1875       C  0.11744901  0.61728987  0.71851866     0.10300
C1876       C  0.09611663  0.62218146  0.71009781    -0.06900
C1877       C  0.08946914  0.61677968  0.68951577    -0.18100
C1878       C  0.10226657  0.60524891  0.67737220     0.10300
S1879       S  0.13066353  0.62676079  0.74412901    -0.33100
S1880       S  0.09100217  0.59805049  0.65126219    -0.33100
H1881       H  0.09840772  0.57680010  0.64828460     0.28300
H1882       H  0.10942165  0.63170088  0.75187806     0.28300
H1883       H  0.14775093  0.60343506  0.71246579     0.18900
H1884       H  0.07485324  0.62256508  0.68262179     0.18900
C1885       C  0.39313325  0.95683952  0.76885973    -0.06900
C1886       C  0.38716355  0.97165602  0.78378321    -0.18100
C1887       C  0.40235024  0.97997975  0.80197739     0.10300
C1888       C  0.42414779  0.97342061  0.80555447    -0.06900
C1889       C  0.43034441  0.95876003  0.79071545    -0.18100
C1890       C  0.41520237  0.95052271  0.77234297     0.10300
S1891       S  0.38889152  0.49390108  0.82189170    -0.33100
S1892       S  0.42352291  0.93100652  0.75404805    -0.33100
H1893       H  0.44551332  0.93040509  0.76509134     0.28300
H1894       H  0.39556093  0.48205112  0.83865433     0.28300
H1895       H  0.37013387  0.97642850  0.78135794     0.18900
H1896       H  0.44737334  0.95410542  0.79349227     0.18900
C1897       C  0.38320059  0.99396304  0.70806556    -0.06900
C1898       C  0.39051088  0.49430516  0.68802619    -0.18100
C1899       C  0.40075038  0.51871481  0.67581384     0.10300
C1900       C  0.40260559  0.54382110  0.68380958    -0.06900
C1901       C  0.39570188  0.54423169  0.70423944    -0.18100
C1902       C  0.38595466  0.51991706  0.71651336     0.10300
S1903       S  0.41008087  0.51603546  0.64998911    -0.33100
S1904       S  0.37682015  0.52225209  0.74237093    -0.33100
H1905       H  0.39505308  0.00629859  0.74946900     0.28300
H1906       H  0.42832750  0.54528018  0.64662268     0.28300
H1907       H  0.38539641  0.97421428  0.68041117     0.18900
H1908       H  0.39690670  0.56333088  0.71046498     0.18900
C1909       C  0.38271327  0.90752424  0.70884706    -0.06900
C1910       C  0.40121492  0.92221019  0.69271889    -0.18100
C1911       C  0.41129586  0.90854553  0.67984921     0.10300
C1912       C  0.40296245  0.87961518  0.68333739    -0.06900
C1913       C  0.38600557  0.86557764  0.70021989    -0.18100
C1914       C  0.37644857  0.87933038  0.71326171     0.10300
S1915       S  0.43355447  0.92884058  0.65884760    -0.33100
S1916       S  0.35678441  0.85972347  0.73539611    -0.33100
H1917       H  0.36370234  0.88362401  0.74747256     0.28300
H1918       H  0.42609454  0.90590214  0.64565326     0.28300
H1919       H  0.40659531  0.94397920  0.68942311     0.18900
H1920       H  0.38010385  0.84357291  0.70321805     0.18900
C1921       C  0.44028816  0.55946175  0.21243573    -0.06900
C1922       C  0.46791659  0.56330905  0.21196347    -0.10900
C1923       C  0.47743010  0.55408601  0.19551653     0.10300
C1924       C  0.45929434  0.54128712  0.17877842    -0.06900
C1925       C  0.43167735  0.53709554  0.17920972    -0.18100
C1926       C  0.42184529  0.54584650  0.19573255     0.10300
S1927       S  0.01172757  0.55553401  0.19923847    -0.33100
S1928       S  0.38540771  0.53809883  0.19411692    -0.33100
H1929       H  0.38003230  0.53496992  0.21492669     0.28300
H1930       H  0.00295223  0.52882558  0.19040745     0.28300
H1931       H  0.48230493  0.57359598  0.22451536     0.18900
H1932       H  0.41760319  0.52690006  0.16647366     0.18900
C1933       C  0.48537626  0.61287278  0.26921021    -0.06900
C1934       C  0.50163250  0.64213562  0.26459857    -0.18100
C1935       C  0.02681846  0.65838356  0.27555298     0.10300
C1936       C  0.03759511  0.64667986  0.28998882    -0.06900
C1937       C  0.02252017  0.61718344  0.29364558    -0.18100
C1938       C  0.99599911  0.59951227  0.28435442     0.10300
S1939       S  0.04373609  0.69595550  0.26935129    -0.33100
S1940       S  0.97633739  0.56256207  0.29184944    -0.33100
H1941       H  0.49930872  0.56362585  0.30195358     0.28300
H1942       H  0.07066736  0.70446286  0.27759418     0.28300
H1943       H  0.49375305  0.65164852  0.25367885     0.18900
H1944       H  0.03059763  0.60836380  0.30494516     0.18900
C1945       C  0.37051279  0.97471872  0.30346241    -0.06900
C1946       C  0.36991909  0.97228542  0.28227864    -0.18100
C1947       C  0.38511123  0.99623974  0.26983687     0.10300
C1948       C  0.40016732  0.52514136  0.27589736    -0.06900
C1949       C  0.40511228  0.52759985  0.29683382    -0.18100
C1950       C  0.39187744  0.50381486  0.30970932     0.10300
S1951       S  0.38331659  0.99057670  0.24297276    -0.33100
S1952       S  0.39977944  0.50995012  0.33643013    -0.33100
H1953       H  0.38605131  0.97992248  0.34454779     0.28300
H1954       H  0.40214510  0.51001960  0.23519640     0.28300
H1955       H  0.35671914  0.95177091  0.27528746     0.18900
H1956       H  0.41869729  0.54843813  0.30330553     0.18900
C1957       C  0.44641418  0.90778829  0.21700405    -0.06900
C1958       C  0.46252954  0.90249539  0.20279591    -0.18100
C1959       C  0.46982528  0.91644987  0.18408498     0.10300
C1960       C  0.46116998  0.93651258  0.17946913    -0.06900
C1961       C  0.44613117  0.94277261  0.19396984    -0.18100
C1962       C  0.43876884  0.92872204  0.21277317     0.10300
S1963       S  0.48900054  0.90674188  0.16647702    -0.33100
S1964       S  0.41847863  0.93670137  0.23061403    -0.33100
H1965       H  0.42080101  0.96067194  0.22033798     0.28300
H1966       H  0.47613974  0.91015591  0.14891369     0.28300
H1967       H  0.46848885  0.88644089  0.20601271     0.18900
H1968       H  0.44027091  0.95882520  0.19053049     0.18900
C1969       C  0.03207505  0.91396632  0.29760179    -0.06900
C1970       C  0.00779930  0.91000686  0.30806818    -0.18100
C1971       C  0.48258077  0.89918427  0.29736743     0.10300
C1972       C  0.48015590  0.89351963  0.27639652    -0.06900
C1973       C  0.00374727  0.89852938  0.26668764    -0.18100
C1974       C  0.02999295  0.90822050  0.27660882     0.10300
S1975       S  0.45261372  0.89162146  0.31330383    -0.33100
S1976       S  0.05982791  0.91080797  0.26270790    -0.33100
H1977       H  0.04550472  0.89998698  0.24425481     0.28300
H1978       H  0.43214351  0.86812409  0.30239076     0.28300
H1979       H  0.00907247  0.91377674  0.32425331     0.18900
H1980       H  0.00186553  0.89369058  0.25066525     0.18900
C1981       C  0.36660757  0.91651220  0.30144162    -0.06900
C1982       C  0.35186828  0.89807379  0.28544367    -0.18100
C1983       C  0.36535905  0.88831547  0.27230804     0.10300
C1984       C  0.39409367  0.89587061  0.27577645    -0.06900
C1985       C  0.40951840  0.91644968  0.29057820    -0.18100
C1986       C  0.39602667  0.92651326  0.30363507     0.10300
S1987       S  0.34494274  0.86737670  0.25094424    -0.33100
S1988       S  0.41714447  0.95091144  0.32328784    -0.33100
H1989       H  0.39549290  0.94036831  0.33797062     0.28300
H1990       H  0.36838084  0.87574571  0.23798385     0.28300
H1991       H  0.32954459  0.89123102  0.28317349     0.18900
H1992       H  0.43188100  0.92366611  0.29273410     0.18900
C1993       C  0.09971573  0.56033249  0.21364242    -0.06900
C1994       C  0.07997357  0.53125153  0.21171933    -0.18100
C1995       C  0.06277436  0.52080006  0.19443518     0.10300
C1996       C  0.06557258  0.53968758  0.17854032    -0.06900
C1997       C  0.08516258  0.56875420  0.18058917    -0.18100
C1998       C  0.10209734  0.57931674  0.19787734     0.10300
S1999       S  0.03655738  0.48361846  0.19404837    -0.33100
S2000       S  0.12585931  0.61733742  0.19878462    -0.33100
H2001       H  0.12731857  0.61978757  0.21995057     0.28300
H2002       H  0.01236317  0.99377634  0.19014518     0.28300
H2003       H  0.07805723  0.51658205  0.22370702     0.18900
H2004       H  0.08701743  0.58348952  0.16866096     0.18900
C2005       C  0.11127123  0.52087831  0.27290859    -0.06900
C2006       C  0.12440051  0.50421168  0.26988438    -0.18100
C2007       C  0.11332809  0.97855827  0.28084962     0.10300
C2008       C  0.08993372  0.96853839  0.29419024    -0.06900
C2009       C  0.07501168  0.98354818  0.29541637    -0.18100
C2010       C  0.08651944  0.50919280  0.28536385     0.10300
S2011       S  0.13400504  0.96090558  0.27730053    -0.33100
S2012       S  0.06611764  0.52644131  0.29059925    -0.33100
H2013       H  0.08984210  0.55340642  0.29215394     0.28300
H2014       H  0.11381299  0.93385144  0.28452050     0.28300
H2015       H  0.14222778  0.51143568  0.25960026     0.18900
H2016       H  0.05695711  0.97589099  0.30557437     0.18900
C2017       C  0.11184044  0.60933678  0.27396931    -0.06900
C2018       C  0.10029102  0.62330073  0.26269954    -0.18100
C2019       C  0.09279611  0.64200989  0.27194406     0.10300
C2020       C  0.09346674  0.64438782  0.29334175    -0.06900
C2021       C  0.10347171  0.62894129  0.30463272    -0.18100
C2022       C  0.11413809  0.61295126  0.29528012     0.10300
S2023       S  0.08724097  0.66532358  0.25537049    -0.33100
S2024       S  0.13225036  0.60005542  0.31170974    -0.33100
H2025       H  0.13961215  0.58572341  0.29748669     0.28300
H2026       H  0.10315977  0.68952656  0.26742720     0.28300
H2027       H  0.09966168  0.62179575  0.24633780     0.18900
H2028       H  0.10481695  0.63093983  0.32099529     0.18900
C2029       C  0.19925677  0.92156751  0.55969884    -0.06900
C2030       C  0.18739435  0.93927770  0.55762945    -0.18100
C2031       C  0.20083503  0.96687647  0.56560314     0.10300
C2032       C  0.22692963  0.97725217  0.57649131    -0.06900
C2033       C  0.23718040  0.95810058  0.58008332    -0.18100
C2034       C  0.22369289  0.93061689  0.57184203     0.10300
S2035       S  0.18740370  0.49163090  0.55638829    -0.33100
S2036       S  0.23893711  0.90815935  0.57708143    -0.33100
H2037       H  0.21310020  0.88232161  0.57572791     0.28300
H2038       H  0.16275856  0.47146045  0.54625083     0.28300
H2039       H  0.16865135  0.93225230  0.54825813     0.18900
H2040       H  0.25631030  0.96431332  0.58863735     0.18900
C2041       C  0.20738010  0.80739598  0.56209042    -0.06900
C2042       C  0.23690810  0.81909661  0.56134391    -0.18100
C2043       C  0.25028789  0.80495296  0.56988604     0.10300
C2044       C  0.23382667  0.77850820  0.58032044    -0.06900
C2045       C  0.20451414  0.76858715  0.58284898    -0.18100
C2046       C  0.19127554  0.78258871  0.57385107     0.10300
S2047       S  0.28793214  0.81971004  0.56488345    -0.33100
S2048       S  0.15354373  0.76713615  0.57750970    -0.33100
H2049       H  0.15337449  0.79303067  0.57590599     0.28300
H2050       H  0.29343320  0.84660794  0.55786682     0.28300
H2051       H  0.24929762  0.83808594  0.55229054     0.18900
H2052       H  0.19102683  0.74893358  0.59073822     0.18900
C2053       C  0.02756562  0.77476120  0.57550870    -0.06900
C2054       C  0.04318687  0.76025495  0.57413748    -0.18100
C2055       C  0.06991469  0.77230177  0.56466904     0.10300
C2056       C  0.08234042  0.80025848  0.55656312    -0.06900
C2057       C  0.06742507  0.81526128  0.55863914    -0.18100
C2058       C  0.04019562  0.80281147  0.56727053     0.10300
S2059       S  0.08582353  0.75003106  0.56127509    -0.33100
S2060       S  0.02106420  0.82233688  0.56517114    -0.33100
H2061       H  0.54466820  0.84950739  0.55986881     0.28300
H2062       H  0.06748980  0.72741696  0.57404152     0.28300
H2063       H  0.03369351  0.73831586  0.57878127     0.18900
H2064       H  0.07634772  0.83643939  0.55219465     0.18900
C2065       C  0.26612082  0.54445795  0.40480887    -0.06900
C2066       C  0.29006492  0.55126034  0.41701994    -0.18100
C2067       C  0.30487989  0.57716142  0.42711564     0.10300
C2068       C  0.29495946  0.59699754  0.42604503    -0.06900
C2069       C  0.27343994  0.59192835  0.41194614    -0.18100
C2070       C  0.26016179  0.56680501  0.40048446     0.10300
S2071       S  0.33546592  0.58244963  0.44152594    -0.33100
S2072       S  0.23966670  0.56734117  0.37916417    -0.33100
H2073       H  0.24860125  0.55234444  0.36653088     0.28300
H2074       H  0.35359555  0.60907967  0.43251303     0.28300
H2075       H  0.29664242  0.53549032  0.41947157     0.18900
H2076       H  0.26727316  0.60798639  0.40948907     0.18900
C2077       C  0.21353072  0.94525950  0.43519142    -0.06900
C2078       C  0.20251944  0.95275646  0.45191209    -0.18100
C2079       C  0.19612264  0.93768794  0.47031032     0.10300
C2080       C  0.20033510  0.91395544  0.47215420    -0.06900
C2081       C  0.20996706  0.90560853  0.45514760    -0.18100
C2082       C  0.21680109  0.92092055  0.43681374     0.10300
S2083       S  0.18396725  0.95008629  0.49142099    -0.33100
S2084       S  0.23057014  0.90938747  0.41622534    -0.33100
H2085       H  0.23121876  0.88677635  0.42644428     0.28300
H2086       H  0.17945259  0.96998183  0.48053840     0.28300
H2087       H  0.19945848  0.97105093  0.45067117     0.18900
H2088       H  0.21143944  0.88643753  0.45603756     0.18900
C2089       C  0.26232202  0.95741454  0.37543132    -0.06900
C2090       C  0.25203760  0.94412809  0.35669174    -0.18100
C2091       C  0.26677628  0.93367658  0.34540686     0.10300
C2092       C  0.29216328  0.93596152  0.35328602    -0.06900
C2093       C  0.30182559  0.94814888  0.37238934    -0.18100
C2094       C  0.28735062  0.95899100  0.38349506     0.10300
S2095       S  0.25281762  0.91958039  0.32058092    -0.33100
S2096       S  0.30285297  0.97569986  0.40736929    -0.33100
H2097       H  0.27744680  0.97032489  0.41673035     0.28300
H2098       H  0.27091153  0.90883948  0.31566215     0.28300
H2099       H  0.23338789  0.94338204  0.35020223     0.18900
H2100       H  0.32154421  0.95038448  0.37829122     0.18900
C2101       C  0.12583679  0.93526889  0.35108552    -0.06900
C2102       C  0.12753108  0.94973298  0.36906868    -0.18100
C2103       C  0.15159997  0.96027243  0.38156873     0.10300
C2104       C  0.17490204  0.95685134  0.37581109    -0.06900
C2105       C  0.17248842  0.94104743  0.35837813    -0.18100
C2106       C  0.14836396  0.93051026  0.34584831     0.10300
S2107       S  0.15123471  0.97787971  0.40461115    -0.33100
S2108       S  0.14736262  0.91279818  0.32250717    -0.33100
H2109       H  0.17273520  0.91207243  0.32561821     0.28300
H2110       H  0.16889418  0.97047066  0.41569604     0.28300
H2111       H  0.11022995  0.95339826  0.37314599     0.18900
H2112       H  0.19009158  0.93830551  0.35399239     0.18900
C2113       C  0.25617887  0.73692574  0.40314858    -0.06900
C2114       C  0.28600073  0.74898467  0.40154793    -0.18100
C2115       C  0.30073629  0.73682701  0.41116408     0.10300
C2116       C  0.28547889  0.71162745  0.42282082    -0.06900
C2117       C  0.25561696  0.69760975  0.42219426    -0.18100
C2118       C  0.24085858  0.70977855  0.41274424     0.10300
S2119       S  0.33911881  0.75492524  0.40904636    -0.33100
S2120       S  0.20246967  0.69126860  0.41501220    -0.33100
H2121       H  0.19917655  0.66786783  0.42657216     0.28300
H2122       H  0.34191514  0.77420200  0.39358921     0.28300
H2123       H  0.29864139  0.76917972  0.39413970     0.18900
H2124       H  0.24361973  0.67771736  0.43034747     0.18900
C2125       C  0.21203979  0.78655508  0.43731287    -0.06900
C2126       C  0.22982384  0.81465640  0.44352090    -0.18100
C2127       C  0.22564844  0.82451112  0.46206683     0.10300
C2128       C  0.20164026  0.80642801  0.47414122    -0.06900
C2129       C  0.18469261  0.77790595  0.46820416    -0.18100
C2130       C  0.19032680  0.76746158  0.45054017     0.10300
S2131       S  0.25292148  0.85942654  0.46962870    -0.33100
S2132       S  0.16982412  0.72937495  0.44691400    -0.33100
H2133       H  0.17817643  0.72803018  0.42710420     0.28300
H2134       H  0.23397040  0.86904868  0.47379457     0.28300
H2135       H  0.24786749  0.82875820  0.43416295     0.18900
H2136       H  0.16712813  0.76327843  0.47771042     0.18900
C2137       C  0.12927334  0.72224272  0.34399595    -0.06900
C2138       C  0.12466452  0.72217508  0.36494075    -0.18100
C2139       C  0.14733846  0.73612011  0.37856426     0.10300
C2140       C  0.17569086  0.74824790  0.37156217    -0.06900
C2141       C  0.18035644  0.74915960  0.35059865    -0.18100
C2142       C  0.15768984  0.73765106  0.33679443     0.10300
S2143       S  0.13815638  0.73641749  0.40461971    -0.33100
S2144       S  0.16662683  0.74329007  0.31018981    -0.33100
H2145       H  0.14088216  0.74131952  0.30383432     0.28300
H2146       H  0.16067248  0.76382392  0.40858042     0.28300
H2147       H  0.10332659  0.71041413  0.37097007     0.18900
H2148       H  0.20196955  0.75905612  0.34491945     0.18900
C2149       C  0.26137244  0.83020023  0.37844269    -0.06900
C2150       C  0.29054546  0.84779985  0.38260933    -0.18100
C2151       C  0.30721786  0.87323675  0.37196200     0.10300
C2152       C  0.29481735  0.88167493  0.35650954    -0.06900
C2153       C  0.26539388  0.86545106  0.35329802    -0.18100
C2154       C  0.24845531  0.84002675  0.36415106     0.10300
S2155       S  0.34451065  0.89348667  0.37828615    -0.33100
S2156       S  0.21113979  0.81972409  0.35801933    -0.33100
H2157       H  0.20969415  0.84058951  0.34601413     0.28300
H2158       H  0.34832308  0.92016647  0.37224902     0.28300
H2159       H  0.30072027  0.84130291  0.39398430     0.18900
H2160       H  0.25592882  0.87185558  0.34141274     0.18900
C2161       C  0.46505120  0.74705135  0.40844272    -0.06900
C2162       C  0.44420181  0.71901648  0.40324569    -0.18100
C2163       C  0.41682799  0.70556328  0.41199626     0.10300
C2164       C  0.40973772  0.72027675  0.42645233    -0.06900
C2165       C  0.42954888  0.74888371  0.43034897    -0.18100
C2166       C  0.45678241  0.76236203  0.42174601     0.10300
S2167       S  0.39140115  0.66960087  0.40452167    -0.33100
S2168       S  0.48118964  0.79868829  0.42936272    -0.33100
H2169       H  0.46222579  0.80317522  0.44122603     0.28300
H2170       H  0.40739162  0.66736218  0.38859137     0.28300
H2171       H  0.44922419  0.70681427  0.39292085     0.18900
H2172       H  0.42424716  0.76046633  0.44119846     0.18900
C2173       C  0.06669418  0.78793688  0.43445295    -0.06900
C2174       C  0.08968407  0.81579571  0.43478607    -0.18100
C2175       C  0.10699671  0.82655124  0.45201638     0.10300
C2176       C  0.10087727  0.80906924  0.46951770    -0.06900
C2177       C  0.07914093  0.78054782  0.46852025    -0.18100
C2178       C  0.06226644  0.76970280  0.45118079     0.10300
S2179       S  0.13696117  0.86230507  0.45102527    -0.33100
S2180       S  0.03590467  0.73227488  0.45039428    -0.33100
H2181       H  0.03846573  0.72579131  0.47070899     0.28300
H2182       H  0.13498482  0.86758286  0.43033935     0.28300
H2183       H  0.09341258  0.82952790  0.42177852     0.18900
H2184       H  0.07513935  0.76670473  0.48150012     0.18900
C2185       C  0.05433220  0.83090970  0.37662373    -0.06900
C2186       C  0.06065560  0.82946978  0.35624125    -0.18100
C2187       C  0.06943123  0.85284808  0.34316786     0.10300
C2188       C  0.07201510  0.87852860  0.35063793    -0.06900
C2189       C  0.06676540  0.88034317  0.37124265    -0.18100
C2190       C  0.05801148  0.85690043  0.38430110     0.10300
S2191       S  0.07525422  0.84753082  0.31696565    -0.33100
S2192       S  0.05062999  0.86126924  0.41028207    -0.33100
H2193       H  0.05308163  0.83855181  0.41846612     0.28300
H2194       H  0.08844784  0.87594256  0.31035769     0.28300
H2195       H  0.05700363  0.80942110  0.35010066     0.18900
H2196       H  0.06835272  0.89981082  0.37701480     0.18900
C2197       C  0.06981630  0.71740961  0.34488679    -0.06900
C2198       C  0.04921887  0.70108353  0.35948146    -0.18100
C2199       C  0.03896754  0.71346551  0.37327285     0.10300
C2200       C  0.04829026  0.74300904  0.37203948    -0.06900
C2201       C  0.06990252  0.75957586  0.35799455    -0.18100
C2202       C  0.08048380  0.74714612  0.34432174     0.10300
S2203       S  0.01554231  0.69047260  0.39285879    -0.33100
S2204       S  0.10672799  0.77022474  0.32613734    -0.33100
H2205       H  0.09853737  0.74992804  0.31063405     0.28300
H2206       H  0.52648298  0.71118011  0.40756864     0.28300
H2207       H  0.04140527  0.67835118  0.36037600     0.18900
H2208       H  0.07805217  0.78229904  0.35713609     0.18900
C2209       C  0.36768741  0.63781024  0.22636141    -0.06900
C2210       C  0.35311219  0.60793919  0.22765788    -0.18100
C2211       C  0.36519099  0.59303571  0.23685887     0.10300
C2212       C  0.39287923  0.60823607  0.24547734    -0.06900
C2213       C  0.40562552  0.63826299  0.24651202    -0.18100
C2214       C  0.39320343  0.65301314  0.23744610     0.10300
S2215       S  0.34558459  0.55458290  0.23516108    -0.33100
S2216       S  0.41191467  0.69124301  0.23986921    -0.33100
H2217       H  0.38711648  0.69265919  0.24394513     0.28300
H2218       H  0.31870775  0.55173949  0.23129803     0.28300
H2219       H  0.33289174  0.59589035  0.22001072     0.18900
H2220       H  0.42622482  0.65114063  0.25321812     0.18900
C2221       C  0.36513656  0.75732791  0.22292217    -0.06900
C2222       C  0.38310645  0.76105186  0.23939575    -0.18100
C2223       C  0.39509852  0.78620684  0.25092754     0.10300
C2224       C  0.39126703  0.80930130  0.24458794    -0.06900
C2225       C  0.37021632  0.80359782  0.22983213    -0.18100
C2226       C  0.35768214  0.77841188  0.21879970     0.10300
S2227       S  0.41055766  0.78509095  0.27487713    -0.33100
S2228       S  0.33529839  0.77612985  0.19780458    -0.33100
H2229       H  0.31105971  0.75273834  0.20618720     0.28300
H2230       H  0.40261014  0.80318048  0.28467527     0.28300
H2231       H  0.38719377  0.74398060  0.24360603     0.18900
H2232       H  0.36519621  0.82004535  0.22561276     0.18900
C2233       C  0.25153981  0.63523670  0.22338034    -0.06900
C2234       C  0.23512551  0.60551054  0.22305510    -0.18100
C2235       C  0.20818117  0.59115301  0.23204453     0.10300
C2236       C  0.19723935  0.60683760  0.24233930    -0.06900
C2237       C  0.21521930  0.63659785  0.24416127    -0.18100
C2238       C  0.24201678  0.65078775  0.23486214     0.10300
S2239       S  0.18719436  0.55310796  0.22788352    -0.33100
S2240       S  0.26289081  0.68886748  0.23789337    -0.33100
H2241       H  0.28932524  0.68977654  0.23741699     0.28300
H2242       H  0.20968490  0.54874796  0.22190658     0.28300
H2243       H  0.24242756  0.59356817  0.21418398     0.18900
H2244       H  0.20832983  0.64964076  0.25186816     0.18900
C2245       C  0.43100346  0.57800942  0.07220742    -0.06900
C2246       C  0.42078196  0.54858745  0.06963514    -0.18100
C2247       C  0.43425852  0.53495398  0.07880469     0.10300
C2248       C  0.45852209  0.55075763  0.09095422    -0.06900
C2249       C  0.47059128  0.58037393  0.09174216    -0.18100
C2250       C  0.45731371  0.59421823  0.08265064     0.10300
S2251       S  0.41619535  0.99541064  0.07762018    -0.33100
S2252       S  0.47321500  0.63231401  0.08645774    -0.33100
H2253       H  0.49888252  0.63696557  0.09523538     0.28300
H2254       H  0.44200959  0.99506513  0.07851615     0.28300
H2255       H  0.40165369  0.53543017  0.06121417     0.18900
H2256       H  0.48941534  0.59252080  0.10089811     0.18900
C2257       C  0.38157419  0.62723679  0.10012339    -0.06900
C2258       C  0.40160369  0.64140292  0.11555397    -0.18100
C2259       C  0.39406429  0.64911225  0.13372060     0.10300
C2260       C  0.36565822  0.64275859  0.13678414    -0.06900
C2261       C  0.34577348  0.62912748  0.12111993    -0.18100
C2262       C  0.35328269  0.62122355  0.10294571     0.10300
S2263       S  0.42139060  0.66551503  0.15266314    -0.33100
S2264       S  0.32595873  0.60191778  0.08430779    -0.33100
H2265       H  0.30325349  0.60190957  0.09463997     0.28300
H2266       H  0.42214081  0.69186041  0.15091832     0.28300
H2267       H  0.42338591  0.64607471  0.11357507     0.18900
H2268       H  0.32405028  0.62449792  0.12314573     0.18900
C2269       C  0.42647797  0.65933447  0.03831030    -0.06900
C2270       C  0.44449379  0.68398285  0.04920107    -0.18100
C2271       C  0.46236603  0.70970448  0.03926166     0.10300
C2272       C  0.46014772  0.71170619  0.01799840    -0.06900
C2273       C  0.44079021  0.68731423  0.00728966    -0.18100
C2274       C  0.42497020  0.66096650  0.01699286     0.10300
S2275       S  0.99425459  0.73576251  0.05333770    -0.33100
S2276       S  0.40543819  0.63045155  0.00084562    -0.33100
H2277       H  0.40306255  0.60928870  0.01439486     0.28300
H2278       H  0.01194338  0.74971229  0.03669835     0.28300
H2279       H  0.44653075  0.68249283  0.06546861     0.18900
H2280       H  0.43968803  0.68835345  0.99090922     0.18900
C2281       C  0.42617411  0.87598641  0.06855465    -0.06900
C2282       C  0.40881338  0.88309485  0.08026740    -0.18100
C2283       C  0.42007873  0.90806062  0.09168856     0.10300
C2284       C  0.44967391  0.92730207  0.09139136    -0.06900
C2285       C  0.46654312  0.92227170  0.07777262    -0.18100
C2286       C  0.45492671  0.89781515  0.06554485     0.10300
S2287       S  0.39575180  0.91231943  0.10792668    -0.33100
S2288       S  0.47699889  0.89886762  0.04486845    -0.33100
H2289       H  0.45394672  0.88458998  0.03145068     0.28300
H2290       H  0.41230727  0.91679765  0.12543630     0.28300
H2291       H  0.38644870  0.86764885  0.08209873     0.18900
H2292       H  0.48887698  0.93798092  0.07624943     0.18900
C2293       C  0.36580954  0.74531255  0.13498197    -0.06900
C2294       C  0.35791370  0.76634686  0.13267631    -0.18100
C2295       C  0.36374783  0.78240138  0.11482185     0.10300
C2296       C  0.37911529  0.77852976  0.09902162    -0.06900
C2297       C  0.38616348  0.75694985  0.10089523    -0.18100
C2298       C  0.37915680  0.73995477  0.11838410     0.10300
S2299       S  0.34996507  0.80667618  0.11286627    -0.33100
S2300       S  0.38635216  0.71084062  0.11785420    -0.33100
H2301       H  0.35880268  0.69099294  0.12450954     0.28300
H2302       H  0.34543486  0.80380362  0.09179158     0.28300
H2303       H  0.34670190  0.77011937  0.14477528     0.18900
H2304       H  0.39731416  0.75333819  0.08866091     0.18900
C2305       C  0.34147838  0.78740129  0.03961716    -0.06900
C2306       C  0.32344954  0.79876052  0.04344949    -0.18100
C2307       C  0.29737192  0.78878526  0.03340770     0.10300
C2308       C  0.28903169  0.76735051  0.01869633    -0.06900
C2309       C  0.30521619  0.75385793  0.01628578    -0.18100
C2310       C  0.33083264  0.76295960  0.02696550     0.10300
S2311       S  0.27471468  0.80342797  0.03950552    -0.33100
S2312       S  0.34915779  0.74320487  0.02320000    -0.33100
H2313       H  0.32606973  0.71859386  0.01500656     0.28300
H2314       H  0.29043660  0.81964832  0.05624014     0.28300
H2315       H  0.32999320  0.81590514  0.05422351     0.18900
H2316       H  0.29834168  0.73689061  0.00530703     0.18900
C2317       C  0.43123878  0.78955513  0.04056368    -0.06900
C2318       C  0.42162752  0.77704992  0.02150846    -0.18100
C2319       C  0.43600450  0.76591233  0.01053528     0.10300
C2320       C  0.46174502  0.76891940  0.01817698    -0.06900
C2321       C  0.47231108  0.78309480  0.03661300    -0.18100
C2322       C  0.45686758  0.79229277  0.04825256     0.10300
S2323       S  0.42195465  0.75087077  0.98598831    -0.33100
S2324       S  0.47177940  0.80865266  0.07230569    -0.33100
H2325       H  0.44558926  0.80033604  0.08179377     0.28300
H2326       H  0.43405875  0.73317923  0.98492784     0.28300
H2327       H  0.40384752  0.77754664  0.01451448     0.18900
H2328       H  0.49318936  0.78778042  0.04176116     0.18900
C2329       C  0.12907957  0.57664138  0.07298774    -0.06900
C2330       C  0.11040966  0.54737419  0.06932894    -0.18100
C2331       C  0.08335312  0.53247845  0.07852814     0.10300
C2332       C  0.07437554  0.54707737  0.09167580    -0.06900
C2333       C  0.09165464  0.57672442  0.09347645    -0.18100
C2334       C  0.11867975  0.59148781  0.08479539     0.10300
S2335       S  0.06105527  0.49489180  0.07351821    -0.33100
S2336       S  0.14012962  0.62910216  0.09055425    -0.33100
H2337       H  0.12313974  0.63037156  0.10615369     0.28300
H2338       H  0.07665444  0.99157681  0.06050398     0.28300
H2339       H  0.11713920  0.53537617  0.06019506     0.18900
H2340       H  0.08465878  0.58848896  0.10279378     0.18900
C2341       C  0.22773927  0.62291840  0.10044781    -0.06900
C2342       C  0.24830966  0.65173362  0.10163340    -0.18100
C2343       C  0.26536413  0.66269282  0.11883893     0.10300
C2344       C  0.26208180  0.64428521  0.13534527    -0.06900
C2345       C  0.24236697  0.61508661  0.13353770    -0.18100
C2346       C  0.22559364  0.60420270  0.11623221     0.10300
S2347       S  0.29119968  0.70010927  0.11828450    -0.33100
S2348       S  0.20275211  0.56610029  0.11485715    -0.33100
H2349       H  0.20457980  0.56447871  0.09368245     0.28300
H2350       H  0.27776236  0.70648476  0.13401701     0.28300
H2351       H  0.25055769  0.66605133  0.08930522     0.18900
H2352       H  0.24009804  0.60041905  0.14562446     0.18900
C2353       C  0.23573979  0.70960557  0.01546827    -0.06900
C2354       C  0.23161879  0.71169805  0.03624839    -0.18100
C2355       C  0.22077261  0.68773746  0.04900521     0.10300
C2356       C  0.21377898  0.66094807  0.04072259    -0.06900
C2357       C  0.21798940  0.65897194  0.02001404    -0.18100
C2358       C  0.22977528  0.68301337  0.00748696     0.10300
S2359       S  0.21493802  0.69303498  0.07519383    -0.33100
S2360       S  0.23631231  0.67823537  0.98139518    -0.33100
H2361       H  0.25838286  0.70634101  0.97824481     0.28300
H2362       H  0.20510504  0.66535515  0.08249685     0.28300
H2363       H  0.23560889  0.73190788  0.04239934     0.18900
H2364       H  0.21162862  0.63834150  0.01344539     0.18900
C2365       C  0.34113884  0.57433033  0.04199281    -0.06900
C2366       C  0.33834461  0.58860797  0.02509584    -0.18100
C2367       C  0.31532729  0.57506232  0.01179554     0.10300
C2368       C  0.29321868  0.54730969  0.01650797    -0.06900
C2369       C  0.29479976  0.53391473  0.03434122    -0.18100
C2370       C  0.31850638  0.54700229  0.04708307     0.10300
S2371       S  0.31702368  0.59387294  0.98858698    -0.33100
S2372       S  0.31834265  0.52771235  0.06957090    -0.33100
H2373       H  0.33623470  0.55174200  0.08120218     0.28300
H2374       H  0.29161016  0.57350694  0.97949820     0.28300
H2375       H  0.35501494  0.60994826  0.02157536     0.18900
H2376       H  0.27782898  0.51265382  0.03800086     0.18900
C2377       C  0.21622491  0.57588972  0.04125248    -0.06900
C2378       C  0.20589473  0.54666470  0.04490786    -0.18100
C2379       C  0.21602780  0.53130661  0.03415214     0.10300
C2380       C  0.23688058  0.54513132  0.01908454    -0.06900
C2381       C  0.24886504  0.57454496  0.01642477    -0.18100
C2382       C  0.23938417  0.59028517  0.02757058     0.10300
S2383       S  0.19975453  0.99085768  0.04214539    -0.33100
S2384       S  0.25630441  0.62802007  0.02257979    -0.33100
H2385       H  0.27998176  0.63066748  0.01190971     0.28300
H2386       H  0.22317369  0.98847109  0.03557842     0.28300
H2387       H  0.18937097  0.53543108  0.05608989     0.18900
H2388       H  0.26451025  0.58494876  0.00465467     0.18900
C2389       C  0.24254356  0.88625946  0.75897691    -0.06900
C2390       C  0.24735588  0.87147187  0.74343083    -0.18100
C2391       C  0.27316862  0.88376502  0.73260270     0.10300
C2392       C  0.29584688  0.91095677  0.73842227    -0.06900
C2393       C  0.28921662  0.92690750  0.75190369    -0.18100
C2394       C  0.26369108  0.91492935  0.76258332     0.10300
S2395       S  0.27325185  0.86516874  0.71010841    -0.33100
S2396       S  0.26148509  0.93700364  0.78209180    -0.33100
H2397       H  0.25743409  0.91740227  0.79766889     0.28300
H2398       H  0.29026821  0.89030649  0.69900719     0.28300
H2399       H  0.23066964  0.85027120  0.73944183     0.18900
H2400       H  0.30541023  0.94843814  0.75569313     0.18900
C2401       C  0.11974265  0.76271931  0.75744056    -0.06900
C2402       C  0.09037979  0.74487682  0.75978265    -0.18100
C2403       C  0.07629737  0.71743742  0.75157485     0.10300
C2404       C  0.09197493  0.70707213  0.74065940    -0.06900
C2405       C  0.12094224  0.72648235  0.73649720    -0.18100
C2406       C  0.13479015  0.75402618  0.74466681     0.10300
S2407       S  0.03863339  0.69543185  0.75681589    -0.33100
S2408       S  0.17168630  0.77714286  0.73827403    -0.33100
H2409       H  0.17089783  0.80268326  0.74014136     0.28300
H2410       H  0.03404307  0.71695878  0.76469589     0.28300
H2411       H  0.07870605  0.75169621  0.76939346     0.18900
H2412       H  0.13358881  0.72055309  0.72735182     0.18900
C2413       C  0.11731112  0.87724687  0.75853735    -0.06900
C2414       C  0.08780653  0.86587380  0.76048563    -0.18100
C2415       C  0.07358929  0.87849365  0.75103523     0.10300
C2416       C  0.08920105  0.90369993  0.73923904    -0.06900
C2417       C  0.11806729  0.91273487  0.73523078    -0.18100
C2418       C  0.13209365  0.89971992  0.74451726     0.10300
S2419       S  0.03594964  0.86342360  0.75620245    -0.33100
S2420       S  0.16894481  0.91333261  0.73800252    -0.33100
H2421       H  0.16675047  0.88626968  0.73738652     0.28300
H2422       H  0.03106257  0.83681742  0.76344493     0.28300
H2423       H  0.07590228  0.84802536  0.77062485     0.18900
H2424       H  0.13061120  0.93062532  0.72543437     0.18900
C2425       C  0.03034650  0.58430032  0.89388130    -0.06900
C2426       C  0.01649925  0.60030257  0.89474993    -0.18100
C2427       C  0.02971447  0.62772583  0.90302584     0.10300
C2428       C  0.05733070  0.63928452  0.91190744    -0.06900
C2429       C  0.06980616  0.62166801  0.91270537    -0.18100
C2430       C  0.05680144  0.59459983  0.90367666     0.10300
S2431       S  0.01183513  0.64836913  0.89981717    -0.33100
S2432       S  0.07448073  0.57363110  0.90434545    -0.33100
H2433       H  0.09841556  0.59283673  0.91559778     0.28300
H2434       H  0.98685181  0.62733723  0.89052129     0.28300
H2435       H  0.99617091  0.59225191  0.88720473     0.18900
H2436       H  0.09073891  0.62951569  0.91896070     0.18900
C2437       C  0.10873903  0.73489706  0.87905832    -0.06900
C2438       C  0.13729866  0.75657639  0.87851565    -0.18100
C2439       C  0.14878628  0.77415065  0.86142111     0.10300
C2440       C  0.13148471  0.76962447  0.84409892    -0.06900
C2441       C  0.10297307  0.74774024  0.84471096    -0.18100
C2442       C  0.09130471  0.73066880  0.86192950     0.10300
S2443       S  0.18517981  0.80244392  0.86320703    -0.33100
S2444       S  0.05371400  0.70479640  0.86201226    -0.33100
H2445       H  0.04731016  0.71041162  0.84242240     0.28300
H2446       H  0.17933450  0.82366225  0.85625415     0.28300
H2447       H  0.15081396  0.75991519  0.89155968     0.18900
H2448       H  0.08949823  0.74428132  0.83165222     0.18900
C2449       C  0.14871401  0.72678031  0.93845155    -0.06900
C2450       C  0.16690143  0.71568486  0.93453064    -0.18100
C2451       C  0.19249326  0.72514589  0.94500479     0.10300
C2452       C  0.20028047  0.74598381  0.96017997    -0.06900
C2453       C  0.18352652  0.75879011  0.96307937    -0.18100
C2454       C  0.15809505  0.74982932  0.95223330     0.10300
S2455       S  0.21402153  0.70937074  0.93854103    -0.33100
S2456       S  0.13760062  0.76705324  0.95758417    -0.33100
H2457       H  0.15826437  0.78965719  0.96916019     0.28300
H2458       H  0.24011796  0.73236835  0.94484933     0.28300
H2459       H  0.16091590  0.69905915  0.92335057     0.18900
H2460       H  0.18975199  0.77492442  0.97465920     0.18900
C2461       C  0.03517430  0.74848142  0.96704326    -0.06900
C2462       C  0.03052389  0.74580248  0.94601440    -0.18100
C2463       C  0.04534355  0.73690458  0.93339152     0.10300
C2464       C  0.06396568  0.72851939  0.94194058    -0.06900
C2465       C  0.06807543  0.73030044  0.96297349    -0.18100
C2466       C  0.05461428  0.74084953  0.97553571     0.10300
S2467       S  0.03799557  0.73455490  0.90665158    -0.33100
S2468       S  0.06199760  0.74213262  0.00235133    -0.33100
H2469       H  0.05296980  0.76141938  0.00772841     0.28300
H2470       H  0.06643939  0.74487059  0.90097029     0.28300
H2471       H  0.51653189  0.75008925  0.93935607     0.18900
H2472       H  0.08134179  0.72265758  0.96975705     0.18900
C2473       C  0.41678971  0.96333355  0.89293100    -0.06900
C2474       C  0.39913836  0.93389935  0.89096433    -0.18100
C2475       C  0.37171075  0.91987987  0.89930124     0.10300
C2476       C  0.36169224  0.93558695  0.91061392    -0.06900
C2477       C  0.38100768  0.96470604  0.91425032    -0.18100
C2478       C  0.40814374  0.97858699  0.90551304     0.10300
S2479       S  0.34912102  0.88247613  0.89344130    -0.33100
S2480       S  0.42818887  0.51672420  0.91019744    -0.33100
H2481       H  0.45416230  0.51679358  0.90877724     0.28300
H2482       H  0.36865706  0.87883754  0.88161260     0.28300
H2483       H  0.40601365  0.92226195  0.88137099     0.18900
H2484       H  0.37505058  0.97772580  0.92291322     0.18900
C2485       C  0.23231612  0.87904425  0.84406617    -0.06900
C2486       C  0.22647346  0.89263589  0.85999368    -0.18100
C2487       C  0.24269409  0.90069941  0.87785466     0.10300
C2488       C  0.26503484  0.89455227  0.88011453    -0.06900
C2489       C  0.27072857  0.88077777  0.86432113    -0.18100
C2490       C  0.25507107  0.87334546  0.84627607     0.10300
S2491       S  0.23570129  0.92035926  0.89688900    -0.33100
S2492       S  0.26568500  0.85804366  0.82607150    -0.33100
H2493       H  0.28740599  0.85626293  0.83659824     0.28300
H2494       H  0.21248348  0.92028135  0.88716748     0.28300
H2495       H  0.20908516  0.89702311  0.85843429     0.18900
H2496       H  0.28791417  0.87612634  0.86610804     0.18900
C2497       C  0.27217072  0.85409211  0.94061511    -0.06900
C2498       C  0.27043083  0.85538943  0.96168699    -0.18100
C2499       C  0.25905802  0.83073475  0.97358186     0.10300
C2500       C  0.25210709  0.80438857  0.96455827    -0.06900
C2501       C  0.25320983  0.80296850  0.94333636    -0.18100
C2502       C  0.26230517  0.82741435  0.93129181     0.10300
S2503       S  0.25391143  0.83435855  0.00014775    -0.33100
S2504       S  0.26239764  0.82374490  0.90422373    -0.33100
H2505       H  0.25179541  0.84238879  0.90048717     0.28300
H2506       H  0.23155510  0.80626712  0.00287066     0.28300
H2507       H  0.27831950  0.87584064  0.96898077     0.18900
H2508       H  0.24781502  0.78296098  0.93613115     0.18900
C2509       C  0.27795369  0.94323403  0.94073279    -0.06900
C2510       C  0.29037804  0.97275461  0.93724090    -0.18100
C2511       C  0.28197269  0.98962130  0.94793650     0.10300
C2512       C  0.25978521  0.97670251  0.96233625    -0.06900
C2513       C  0.24681478  0.94721844  0.96546970    -0.18100
C2514       C  0.25508462  0.93024308  0.95464919     0.10300
S2515       S  0.29251082  0.52552150  0.93637572    -0.33100
S2516       S  0.23739147  0.89269926  0.96038917    -0.33100
H2517       H  0.21399653  0.89124832  0.97072575     0.28300
H2518       H  0.27262320  0.53156291  0.94520958     0.28300
H2519       H  0.30743524  0.98308144  0.92628647     0.18900
H2520       H  0.23137901  0.93763542  0.97749725     0.18900
C2521       C  0.04033644  0.97229902  0.89036555    -0.06900
C2522       C  0.02460348  0.95129807  0.90489099    -0.18100
C2523       C  0.03675954  0.93769919  0.91602259     0.10300
C2524       C  0.06465554  0.94313737  0.91107961    -0.06900
C2525       C  0.08095575  0.96633954  0.89797346    -0.18100
C2526       C  0.06924541  0.98068381  0.88762469     0.10300
S2527       S  0.01665419  0.91736029  0.93765496    -0.33100
S2528       S  0.09135051  0.00695877  0.86913267    -0.33100
H2529       H  0.08942276  0.02906312  0.87881998     0.28300
H2530       H  0.04091366  0.92561338  0.94980446     0.28300
H2531       H  0.00281240  0.94591139  0.90789588     0.18900
H2532       H  0.10279010  0.97216473  0.89464322     0.18900
C2533       C  0.11404137  0.89357721  0.88296646    -0.06900
C2534       C  0.10870587  0.86542363  0.88245138    -0.18100
C2535       C  0.11513164  0.85459871  0.86524644     0.10300
C2536       C  0.12646589  0.87207859  0.84775685    -0.06900
C2537       C  0.13283082  0.90061507  0.84874291    -0.18100
C2538       C  0.12745200  0.91166388  0.86616728     0.10300
S2539       S  0.10910194  0.81873826  0.86703766    -0.33100
S2540       S  0.13922093  0.94932123  0.86614407    -0.33100
H2541       H  0.14494218  0.95305912  0.88706358     0.28300
H2542       H  0.13593311  0.82602328  0.85907097     0.28300
H2543       H  0.09908697  0.85157629  0.89544532     0.18900
H2544       H  0.14239860  0.91471304  0.83586370     0.18900
C2545       C  0.03486004  0.80500655  0.96659317    -0.06900
C2546       C  0.02702004  0.80489201  0.94626998    -0.18100
C2547       C  0.04136062  0.82899802  0.93386141     0.10300
C2548       C  0.06309067  0.85455551  0.94225167    -0.06900
C2549       C  0.06965325  0.85518332  0.96284813    -0.18100
C2550       C  0.05654353  0.83068787  0.97494084     0.10300
S2551       S  0.02904065  0.82609118  0.90805645    -0.33100
S2552       S  0.06677981  0.83451834  0.00130618    -0.33100
H2553       H  0.05745708  0.80571470  0.00514620     0.28300
H2554       H  0.05309258  0.84983754  0.90011175     0.28300
H2555       H  0.50952192  0.78642442  0.94009752     0.18900
H2556       H  0.08411387  0.87528567  0.96986611     0.18900
C2557       C  0.14982012  0.94187098  0.94205418    -0.06900
C2558       C  0.16824847  0.97071273  0.93715965    -0.18100
C2559       C  0.19433817  0.98680003  0.94704756     0.10300
C2560       C  0.20234012  0.97434771  0.96274687    -0.06900
C2561       C  0.18456080  0.94548464  0.96727639    -0.18100
C2562       C  0.15923724  0.92879147  0.95653854     0.10300
S2563       S  0.20902107  0.52623980  0.94059049    -0.33100
S2564       S  0.13932221  0.89147757  0.96272876    -0.33100
H2565       H  0.16166091  0.88959925  0.97225283     0.28300
H2566       H  0.23340381  0.53597020  0.95260649     0.28300
H2567       H  0.16219599  0.98100428  0.92555855     0.18900
H2568       H  0.18973703  0.93621330  0.98003614     0.18900
C2569       C  0.57749256  0.42508245  0.91650717     0.85700
C2570       C  0.56012084  0.39599637  0.92709374    -0.54600
C2571       C  0.57508999  0.38217961  0.93065649     0.08600
C2572       C  0.60600072  0.39809334  0.92277868     0.19600
C2573       C  0.60430288  0.44133351  0.92962749    -0.55300
C2574       C  0.61974633  0.42772656  0.93276171     0.08700
C2575       C  0.58784553  0.41731784  0.89714644    -0.54800
C2576       C  0.60318108  0.40389963  0.90030632     0.09300
H2577       H  0.53781434  0.38583349  0.93076560     0.13800
H2578       H  0.61779378  0.38637813  0.92484312    -0.00500
H2579       H  0.61095362  0.46251736  0.93536730     0.14100
H2580       H  0.58303058  0.42178576  0.88200672     0.13900
C2581       C  0.82789123  0.42141374  0.91709799     0.85700
C2582       C  0.81780182  0.43905795  0.92938871    -0.54600
C2583       C  0.78883555  0.42640844  0.93174285     0.08600
C2584       C  0.77255119  0.39675648  0.92164873     0.19600
C2585       C  0.81489599  0.39297921  0.92861817    -0.55300
C2586       C  0.78609279  0.37977098  0.93068020     0.08700
C2587       C  0.81118699  0.41524118  0.89725932    -0.54800
C2588       C  0.78245093  0.40231112  0.89934620     0.09300
H2589       H  0.83173098  0.45969973  0.93591315     0.13800
H2590       H  0.74910830  0.38578769  0.92327765    -0.00500
H2591       H  0.82746004  0.38406336  0.93480060     0.14100
H2592       H  0.82152272  0.42079468  0.88251982     0.13900
C2593       C  0.57634007  0.17210672  0.91559658     0.85700
C2594       C  0.60504474  0.18317803  0.92674989    -0.54600
C2595       C  0.62056952  0.21230065  0.92859293     0.08600
C2596       C  0.60563220  0.22767634  0.91910899     0.19600
C2597       C  0.56142321  0.18482099  0.92805419    -0.55300
C2598       C  0.57625103  0.21376818  0.92954003     0.08700
C2599       C  0.58457446  0.18832588  0.89544382    -0.54800
C2600       C  0.59946131  0.21714913  0.89701620     0.09300
H2601       H  0.61246197  0.16967441  0.93342041     0.13800
H2602       H  0.61776337  0.25122466  0.92020180    -0.00500
H2603       H  0.54107831  0.17198653  0.93552980     0.14100
H2604       H  0.57983352  0.17751407  0.88093328     0.13900
O2605       O  0.65865298  0.38178878  0.77507467    -0.82600
C2606       C  0.64196662  0.29004529  0.82592045     0.96700
O2607       O  0.62331610  0.29169191  0.81546876    -0.71700
O2608       O  0.62330689  0.33800813  0.82488471    -0.75300
Al2609     Al  0.62449005  0.32178989  0.79976716     1.49000
C2610       C  0.63437577  0.36407488  0.82889228     0.92000
O2611       O  0.69921686  0.38326852  0.82245550    -0.81500
O2612       O  0.70344122  0.34620874  0.77304580    -0.75100
Al2613     Al  0.67835755  0.38059340  0.79872078     1.90100
O2614       O  0.71307527  0.35281000  0.81433745    -0.74200
O2615       O  0.65764679  0.29531665  0.77970697    -0.74000
O2616       O  0.66774451  0.30457194  0.82110078    -0.79700
O2617       O  0.62159543  0.30281686  0.77524335    -0.77900
O2618       O  0.66220821  0.34275922  0.79824074    -1.14000
O2619       O  0.61688860  0.34725833  0.78432933    -0.73200
C2620       C  0.63193736  0.36850992  0.77310081     0.97500
C2621       C  0.71433969  0.37193619  0.82593195     0.93900
Al2622     Al  0.68358872  0.32606134  0.79698847     1.55600
O2623       O  0.65137817  0.38235036  0.81642834    -0.77800
C2624       C  0.63448355  0.28945111  0.77096668     0.98100
C2625       C  0.71702784  0.37304518  0.77153005     0.93000
O2626       O  0.70941374  0.38771971  0.78173653    -0.83100
C2627       C  0.72461740  0.49281534  0.97745913     0.01500
C2628       C  0.75108088  0.49339335  0.97669207     0.01400
C2629       C  0.77322231  0.01035790  0.98973450    -0.19100
C2630       C  0.76829666  0.02590571  0.00455135     0.01500
C2631       C  0.74104631  0.02302932  0.00643506     0.01400
C2632       C  0.71960009  0.00546063  0.99289178    -0.19100
H2633       H  0.69884943  0.00384871  0.99393503     0.03500
H2634       H  0.79395848  0.01190584  0.98884602     0.03500
C2635       C  0.65988610  0.08840537  0.06804054     0.85700
C2636       C  0.67063916  0.11589006  0.05551876    -0.54600
C2637       C  0.69933746  0.13055912  0.05273964     0.08600
C2638       C  0.71495207  0.11568427  0.06183975     0.19600
C2639       C  0.67089701  0.07126231  0.05600222    -0.55300
C2640       C  0.69984484  0.08541123  0.05279339     0.08700
C2641       C  0.67790231  0.09697725  0.08739858    -0.54800
C2642       C  0.70644246  0.11087248  0.08424435     0.09300
H2643       H  0.65673306  0.12328274  0.04943427     0.13800
H2644       H  0.73832995  0.12764413  0.05993779    -0.00500
H2645       H  0.65755776  0.04998089  0.05025229     0.14100
H2646       H  0.66870363  0.09247369  0.10251352     0.13900
C2647       C  0.91108110  0.34421497  0.06436170     0.85700
C2648       C  0.92885273  0.33285774  0.05394630    -0.54600
C2649       C  0.91507594  0.30398428  0.05179567     0.08600
C2650       C  0.88466896  0.28855160  0.06072073     0.19600
C2651       C  0.88321522  0.33161902  0.05207728    -0.55300
C2652       C  0.86891289  0.30242983  0.05027752     0.08700
C2653       C  0.90269325  0.32766591  0.08455180    -0.54800
C2654       C  0.88838767  0.29883096  0.08281584     0.09300
H2655       H  0.95078098  0.34537290  0.04944341     0.13800
H2656       H  0.87381357  0.26504418  0.05974387    -0.00500
H2657       H  0.87502218  0.34485113  0.04594765     0.14100
H2658       H  0.90806899  0.33811811  0.09921124     0.13900
C2659       C  0.91163504  0.09031349  0.06823813     0.85700
C2660       C  0.88291292  0.07201558  0.05735510    -0.54600
C2661       C  0.86778348  0.08584113  0.05400828     0.08600
C2662       C  0.88310648  0.11703389  0.06120521     0.19600
C2663       C  0.92713201  0.11653706  0.05441375    -0.55300
C2664       C  0.91255480  0.13073369  0.05093625     0.08700
C2665       C  0.90353740  0.10075234  0.08726852    -0.54800
C2666       C  0.88891567  0.11481265  0.08381544     0.09300
H2667       H  0.87491257  0.05040425  0.05221429     0.13800
H2668       H  0.87135718  0.12870487  0.05828246    -0.00500
H2669       H  0.94829374  0.12384726  0.04835749     0.14100
H2670       H  0.90883052  0.09702188  0.10247994     0.13900
O2671       O  0.86862865  0.17700063  0.20939496    -0.82600
C2672       C  0.77925733  0.15298608  0.15445257     0.96700
O2673       O  0.78036857  0.13518130  0.16636255    -0.71700
O2674       O  0.82842095  0.13746903  0.16002939    -0.75300
Al2675     Al  0.81032767  0.13892256  0.18381773     1.49000
C2676       C  0.85465283  0.14952026  0.15644365     0.92000
O2677       O  0.87051355  0.21482750  0.16024735    -0.81500
O2678       O  0.82724111  0.21606527  0.20718052    -0.75100
Al2679     Al  0.86747821  0.19522243  0.18487159     1.90100
O2680       O  0.83807548  0.22667811  0.16630593    -0.74200
O2681       O  0.77911447  0.16948336  0.19919545    -0.74000
O2682       O  0.79301405  0.17906224  0.15841351    -0.79700
O2683       O  0.78967805  0.13635900  0.20740327    -0.77900
O2684       O  0.82957955  0.17682167  0.18413320    -1.14000
O2685       O  0.83601602  0.13399638  0.20099895    -0.73200
C2686       C  0.85654668  0.15042587  0.21223297     0.97500
C2687       C  0.85787049  0.22822346  0.15529689     0.93900
Al2688     Al  0.81087447  0.19615718  0.18298663     1.55600
O2689       O  0.87200558  0.16848697  0.16830115    -0.77800
C2690       C  0.77459861  0.14792903  0.20967339     0.98100
C2691       C  0.85350301  0.23114163  0.21046200     0.93000
O2692       O  0.87120327  0.22636780  0.20125344    -0.83100
C2693       C  0.51630917  0.25435650  0.97938043     0.01500
C2694       C  0.51633777  0.28063978  0.97925114     0.01400
C2695       C  0.99738301  0.28401515  0.99425855    -0.19100
C2696       C  0.97880482  0.26258000  0.00756303     0.01500
C2697       C  0.97883603  0.23646454  0.00821691     0.01400
C2698       C  0.99732846  0.23253018  0.99548098    -0.19100
H2699       H  0.99659716  0.21210556  0.99565942     0.03500
H2700       H  0.99714872  0.30397179  0.99357603     0.03500
C2701       C  0.72275104  0.25026082  0.97579273     0.01500
C2702       C  0.74643258  0.27770684  0.97853539     0.01400
C2703       C  0.76680838  0.28145715  0.99326529    -0.19100
C2704       C  0.76360484  0.25904338  0.00592470     0.01500
C2705       C  0.73982617  0.23158700  0.00319920     0.01400
C2706       C  0.71960319  0.22774179  0.98829085    -0.19100
H2707       H  0.70080705  0.20697921  0.98660705     0.03500
H2708       H  0.78563303  0.30221024  0.99485908     0.03500
C2709       C  0.99627627  0.26055122  0.40145268     0.85700
C2710       C  0.50764911  0.28967503  0.38901682    -0.54600
C2711       C  0.53628307  0.30296992  0.38558478     0.08600
C2712       C  0.55073263  0.28648798  0.39394369     0.19600
C2713       C  0.50523468  0.24378140  0.38776072    -0.55300
C2714       C  0.53408196  0.25658682  0.38446779     0.08700
C2715       C  0.51420665  0.26851092  0.41991726    -0.54800
C2716       C  0.54268913  0.28134222  0.41657694     0.09300
H2717       H  0.99571912  0.29801518  0.38455108     0.13800
H2718       H  0.57402616  0.29736785  0.39123880    -0.00500
H2719       H  0.99124860  0.22276082  0.38124057     0.14100
H2720       H  0.50524450  0.26414416  0.43510278     0.13900
C2721       C  0.74400994  0.25730107  0.39977246     0.85700
C2722       C  0.71651832  0.24321572  0.38703791    -0.54600
C2723       C  0.70281646  0.25877143  0.38545967     0.08600
C2724       C  0.71859859  0.28780597  0.39635383     0.19600
C2725       C  0.76202616  0.28644919  0.38911990    -0.55300
C2726       C  0.74887375  0.30249478  0.38723459     0.08700
C2727       C  0.73574868  0.26494385  0.41996804    -0.54800
C2728       C  0.72227909  0.28032866  0.41834711     0.09300
H2729       H  0.70892002  0.22295223  0.37943067     0.13800
H2730       H  0.70811362  0.30093550  0.39530314    -0.00500
H2731       H  0.78303406  0.29404672  0.38288339     0.14100
H2732       H  0.74028943  0.25867791  0.43459636     0.13900
C2733       C  0.74542837  0.01253910  0.39971569     0.85700
C2734       C  0.76162968  0.00155114  0.38696640    -0.54600
C2735       C  0.74960405  0.47242015  0.38525740     0.08600
C2736       C  0.71879364  0.45681859  0.39330830     0.19600
C2737       C  0.71624385  0.00080669  0.38905488    -0.55300
C2738       C  0.70422240  0.47217582  0.38333725     0.08700
C2739       C  0.73574506  0.49395006  0.41873111    -0.54800
C2740       C  0.72185676  0.46521024  0.41589243     0.09300
H2741       H  0.78294805  0.01534939  0.38116720     0.13800
H2742       H  0.70716256  0.43354118  0.39054329    -0.00500
H2743       H  0.70642132  0.01310408  0.38460758     0.14100
H2744       H  0.74029925  0.50348871  0.43370930     0.13900
O2745       O  0.66145453  0.38423375  0.54144428    -0.82600
C2746       C  0.69133077  0.31862363  0.49061098     0.96700
O2747       O  0.70829902  0.33895420  0.50162480    -0.71700
O2748       O  0.70376784  0.38368355  0.49370481    -0.75300
Al2749     Al  0.70237365  0.36468792  0.51817066     1.49000
C2750       C  0.69101394  0.39716953  0.48944169     0.92000
O2751       O  0.62683208  0.34672377  0.49255849    -0.81500
O2752       O  0.62365326  0.30379561  0.54109391    -0.75100
Al2753     Al  0.64481531  0.36396046  0.51715728     1.90100
O2754       O  0.61651803  0.30301491  0.49932842    -0.74200
O2755       O  0.67178477  0.30348916  0.53588476    -0.74000
O2756       O  0.66513155  0.30575832  0.49449963    -0.79700
O2757       O  0.70525161  0.34726283  0.54241918    -0.77900
O2758       O  0.66436297  0.34524274  0.51800146    -1.14000
O2759       O  0.70541385  0.39523727  0.53448728    -0.73200
C2760       C  0.68789555  0.39950753  0.54434088     0.97500
C2761       C  0.61460670  0.32084020  0.48783736     0.93900
Al2762     Al  0.64591019  0.30727464  0.51784585     1.55600
O2763       O  0.67115249  0.39491733  0.50060938    -0.77800
C2764       C  0.69345694  0.32083058  0.54584827     0.98100
C2765       C  0.60803233  0.31480340  0.54317115     0.93000
O2766       O  0.61335219  0.33686951  0.53309315    -0.83100
C2767       C  0.66399864  0.09261319  0.24818942     0.85700
C2768       C  0.65357082  0.10995516  0.26041363    -0.54600
C2769       C  0.62484128  0.09597581  0.26366944     0.08600
C2770       C  0.60885955  0.06596656  0.25407179     0.19600
C2771       C  0.65259191  0.06490130  0.26049860    -0.55300
C2772       C  0.62354467  0.04991341  0.26313439     0.08700
C2773       C  0.64631039  0.08459657  0.22879077    -0.54800
C2774       C  0.61782831  0.07109881  0.23164524     0.09300
H2775       H  0.66699623  0.13103017  0.26649325     0.13800
H2776       H  0.58547918  0.05515949  0.25571943    -0.00500
H2777       H  0.66675664  0.05783048  0.26654156     0.14100
H2778       H  0.65573934  0.08912500  0.21374178     0.13900
C2779       C  0.91083432  0.34007456  0.25084126     0.85700
C2780       C  0.93906930  0.35076347  0.26250031    -0.54600
C2781       C  0.95346697  0.37950796  0.26579456     0.08600
C2782       C  0.93919701  0.39549026  0.25637246     0.19600
C2783       C  0.89451382  0.35183269  0.26271400    -0.55300
C2784       C  0.90879264  0.38078840  0.26523309     0.08700
C2785       C  0.92042436  0.35791859  0.23126514    -0.54800
C2786       C  0.93506047  0.38663667  0.23388850     0.09300
H2787       H  0.94840725  0.33797902  0.26696454     0.13800
H2788       H  0.95146943  0.41887506  0.25870495    -0.00500
H2789       H  0.87313653  0.33819893  0.26843688     0.14100
H2790       H  0.91594413  0.34840151  0.21627713     0.13900
C2791       C  0.91050849  0.09425798  0.25205185     0.85700
C2792       C  0.89647858  0.06716632  0.26533801    -0.54600
C2793       C  0.91144087  0.05291097  0.26653862     0.08600
C2794       C  0.93999906  0.06779658  0.25502641     0.19600
C2795       C  0.93993482  0.11197144  0.26204509    -0.55300
C2796       C  0.95582192  0.09857217  0.26342386     0.08700
C2797       C  0.91717398  0.08521908  0.23174814    -0.54800
C2798       C  0.93185675  0.07090056  0.23311794     0.09300
H2799       H  0.87653908  0.05994724  0.27332963     0.13800
H2800       H  0.95209941  0.05622908  0.25588978    -0.00500
H2801       H  0.94776720  0.13304996  0.26819995     0.14100
H2802       H  0.91108941  0.09035702  0.21729375     0.13900
O2803       O  0.99483415  0.04903094  0.11133074    -0.82600
C2804       C  0.96959904  0.45283750  0.16000986     0.96700
O2805       O  0.95204506  0.45779786  0.15091517    -0.71700
O2806       O  0.95437953  0.00667806  0.15874513    -0.75300
Al2807     Al  0.95617390  0.48758703  0.13340821     1.49000
C2808       C  0.96796058  0.03253312  0.16338158     0.92000
O2809       O  0.53308726  0.04499283  0.15688971    -0.81500
O2810       O  0.53389227  0.00606628  0.10836654    -0.75100
Al2811     Al  0.51254108  0.04388725  0.13382589     1.90100
O2812       O  0.54281893  0.01110398  0.15013035    -0.74200
O2813       O  0.98691866  0.45758273  0.11298234    -0.74000
O2814       O  0.99493660  0.46385041  0.15416688    -0.79700
O2815       O  0.95160239  0.46625359  0.10979743    -0.77900
O2816       O  0.99396915  0.00706232  0.13389616    -1.14000
O2817       O  0.95146672  0.01481376  0.11772148    -0.73200
C2818       C  0.96850972  0.03684257  0.10793999     0.97500
C2819       C  0.54590169  0.03159644  0.16101604     0.93900
Al2820     Al  0.51381978  0.48753440  0.13007278     1.55600
O2821       O  0.98863657  0.04999677  0.15278405    -0.77800
C2822       C  0.96354842  0.45224489  0.10499621     0.98100
C2823       C  0.54798347  0.03264686  0.10584252     0.93000
O2824       O  0.54222834  0.04863255  0.11625444    -0.83100
C2825       C  0.57902176  0.20224562  0.33181888     0.01500
C2826       C  0.60577664  0.20319630  0.33181287     0.01400
C2827       C  0.60882007  0.18358777  0.31955725    -0.19100
C2828       C  0.58736152  0.16478573  0.30631121     0.01500
C2829       C  0.56156129  0.16545712  0.30536087     0.01400
C2830       C  0.55766982  0.18367944  0.31844387    -0.19100
H2831       H  0.53733581  0.18311106  0.31841011     0.03500
H2832       H  0.62836070  0.18267936  0.32048096     0.03500
C2833       C  0.81406523  0.43218526  0.34074037     0.01500
C2834       C  0.81440240  0.40624362  0.34112240     0.01400
C2835       C  0.83280325  0.40268690  0.32798551    -0.19100
C2836       C  0.85174259  0.42476717  0.31509679     0.01500
C2837       C  0.85276918  0.45147862  0.31582723     0.01400
C2838       C  0.83343200  0.45449870  0.32832777    -0.19100
H2839       H  0.83328368  0.47450713  0.32828983     0.03500
H2840       H  0.83238493  0.38239983  0.32780366     0.03500
C2841       C  0.60368609  0.42765041  0.33305551     0.01500
C2842       C  0.57755960  0.40178496  0.33360587     0.01400
C2843       C  0.55560275  0.39808352  0.32033288    -0.19100
C2844       C  0.55894071  0.41930260  0.30629938     0.01500
C2845       C  0.58553059  0.44481414  0.30530285     0.01400
C2846       C  0.60723093  0.44868411  0.31893286    -0.19100
H2847       H  0.62725476  0.46857271  0.31863572     0.03500
H2848       H  0.53543563  0.37837801  0.32107203     0.03500
C2849       C  0.82882338  0.42499390  0.73393291     0.85700
C2850       C  0.84089595  0.45345558  0.72241987    -0.54600
C2851       C  0.86972046  0.46750143  0.72005135     0.08600
C2852       C  0.88437975  0.45185359  0.72932608     0.19600
C2853       C  0.84010899  0.40796557  0.72228673    -0.55300
C2854       C  0.86906882  0.42192276  0.71982344     0.08700
C2855       C  0.84589103  0.43235573  0.75383248    -0.54800
C2856       C  0.87467824  0.44662481  0.75166100     0.09300
H2857       H  0.82767761  0.46187629  0.71666400     0.13800
H2858       H  0.90782768  0.46348779  0.72731669    -0.00500
H2859       H  0.82734514  0.38649033  0.71697339     0.14100
H2860       H  0.83585501  0.42693765  0.76867820     0.13900
C2861       C  0.57841771  0.17746043  0.73419314     0.85700
C2862       C  0.59625701  0.16691546  0.72271563    -0.54600
C2863       C  0.58241816  0.13818465  0.71960161     0.08600
C2864       C  0.55169294  0.12234383  0.72804564     0.19600
C2865       C  0.55116249  0.16634079  0.72135559    -0.55300
C2866       C  0.53657692  0.13741092  0.71842053     0.08700
C2867       C  0.56931237  0.15927540  0.75356988    -0.54800
C2868       C  0.55503740  0.13056967  0.75062294     0.09300
H2869       H  0.61772756  0.18017021  0.71726815     0.13800
H2870       H  0.54017155  0.09909696  0.72569896    -0.00500
H2871       H  0.54357858  0.18027018  0.71560421     0.14100
H2872       H  0.57393258  0.16862592  0.76860598     0.13900
C2873       C  0.57550420  0.42336439  0.73415328     0.85700
C2874       C  0.54830737  0.40826795  0.72132075    -0.54600
C2875       C  0.53475524  0.42367173  0.71849809     0.08600
C2876       C  0.54996624  0.45337100  0.72840393     0.19600
C2877       C  0.59368143  0.45182934  0.72274900    -0.55300
C2878       C  0.58047425  0.46769486  0.71969744     0.08700
C2879       C  0.56688201  0.43237056  0.75363503    -0.54800
C2880       C  0.55340159  0.44760685  0.75079715     0.09300
H2881       H  0.54048055  0.38721612  0.71490463     0.13800
H2882       H  0.53877099  0.46574747  0.72653593    -0.00500
H2883       H  0.61513374  0.45940335  0.71742002     0.14100
H2884       H  0.57101820  0.42693421  0.76869193     0.13900
O2885       O  0.53686707  0.00963539  0.87378702    -0.82600
C2886       C  0.94033367  0.48174493  0.82555448     0.96700
O2887       O  0.94275721  0.46369307  0.83637353    -0.71700
O2888       O  0.99011460  0.46592245  0.82832244    -0.75300
Al2889     Al  0.97368420  0.46761714  0.85289608     1.49000
C2890       C  0.51677073  0.47958770  0.82294609     0.92000
O2891       O  0.53224054  0.04610924  0.82637076    -0.81500
O2892       O  0.99315074  0.04692079  0.87565786    -0.75100
Al2893     Al  0.53238751  0.02711005  0.85024593     1.90100
O2894       O  0.50037800  0.05764156  0.83500875    -0.74200
O2895       O  0.94506953  0.99987060  0.86852469    -0.74000
O2896       O  0.95582705  0.00952733  0.82758477    -0.79700
O2897       O  0.95427393  0.46452504  0.87732783    -0.77900
O2898       O  0.99481485  0.00812563  0.85144572    -1.14000
O2899       O  0.50205065  0.46562369  0.86868463    -0.73200
C2900       C  0.52477183  0.48335082  0.87746252     0.97500
C2901       C  0.51938393  0.05972391  0.82295502     0.93900
Al2902     Al  0.97534830  0.02688732  0.85169631     1.55600
O2903       O  0.53656216  0.00141621  0.83266608    -0.77800
C2904       C  0.93927434  0.47590911  0.88073902     0.98100
C2905       C  0.51990510  0.06128402  0.87841341     0.93000
O2906       O  0.53679326  0.05758086  0.86733023    -0.83100
C2907       C  0.74313990  0.00918149  0.58140569     0.85700
C2908       C  0.77076279  0.01921570  0.59398470    -0.54600
C2909       C  0.78592931  0.04807633  0.59749626     0.08600
C2910       C  0.77152450  0.06409812  0.58830473     0.19600
C2911       C  0.72645571  0.02019199  0.59354311    -0.55300
C2912       C  0.74084008  0.04880958  0.59687379     0.08700
C2913       C  0.75341078  0.02779151  0.56231349    -0.54800
C2914       C  0.76825612  0.05637128  0.56567421     0.09300
H2915       H  0.77825633  0.00534633  0.59973777     0.13800
H2916       H  0.78351776  0.08729925  0.59073746    -0.00500
H2917       H  0.70493748  0.00649642  0.59901576     0.14100
H2918       H  0.74941704  0.01883054  0.54716231     0.13900
C2919       C  0.99828050  0.26108835  0.58243519     0.85700
C2920       C  0.98794939  0.27651190  0.59663570    -0.54600
C2921       C  0.95917577  0.26256201  0.59963151     0.08600
C2922       C  0.94315162  0.23344681  0.58876121     0.19600
C2923       C  0.98701212  0.23178198  0.59299229    -0.55300
C2924       C  0.95814579  0.21682091  0.59586609     0.08700
C2925       C  0.98021269  0.25491600  0.56326778    -0.54800
C2926       C  0.95162115  0.24012188  0.56627636     0.09300
H2927       H  0.50027652  0.29494334  0.60383100     0.13800
H2928       H  0.91978984  0.22199784  0.59121930    -0.00500
H2929       H  0.49890373  0.22229186  0.59885094     0.14100
H2930       H  0.98950524  0.26127987  0.54823653     0.13900
C2931       C  0.74585911  0.26119729  0.58315889     0.85700
C2932       C  0.72786210  0.23330199  0.59533921    -0.54600
C2933       C  0.74066182  0.21692995  0.59797120     0.08600
C2934       C  0.77036968  0.23009041  0.58804476     0.19600
C2935       C  0.77393836  0.27600746  0.59501761    -0.55300
C2936       C  0.78704468  0.26013988  0.59729144     0.08700
C2937       C  0.75252791  0.25097874  0.56342954    -0.54800
C2938       C  0.76528250  0.23492596  0.56572730     0.09300
H2939       H  0.70709638  0.22671543  0.60167491     0.13800
H2940       H  0.78127956  0.21744801  0.58974400    -0.00500
H2941       H  0.78274154  0.29731910  0.60118873     0.14100
H2942       H  0.74750012  0.25616840  0.54857829     0.13900
O2943       O  0.87122502  0.18040058  0.44183389    -0.82600
C2944       C  0.79742851  0.19850306  0.49270932     0.96700
O2945       O  0.81680898  0.21668755  0.48152574    -0.71700
O2946       O  0.86443432  0.21884751  0.49019965    -0.75300
Al2947     Al  0.84517189  0.21528323  0.46534585     1.49000
C2948       C  0.87979733  0.20816271  0.49467367     0.92000
O2949       O  0.83565680  0.14202634  0.49036335    -0.81500
O2950       O  0.79173833  0.13533504  0.44163598    -0.75100
Al2951     Al  0.85188016  0.16182941  0.46606641     1.90100
O2952       O  0.79082288  0.12698627  0.48310618    -0.74200
O2953       O  0.78494267  0.17967779  0.44787209    -0.74000
O2954       O  0.78726119  0.17236548  0.48915765    -0.79700
O2955       O  0.82686062  0.21582429  0.44080501    -0.77900
O2956       O  0.82957183  0.17747895  0.46541326    -1.14000
O2957       O  0.87754870  0.22249997  0.44931880    -0.73200
C2958       C  0.88432087  0.20700078  0.43911164     0.97500
C2959       C  0.80966378  0.12688558  0.49435111     0.93900
Al2960     Al  0.79186356  0.15546560  0.46532907     1.55600
O2961       O  0.88072213  0.19021297  0.48294995    -0.77800
C2962       C  0.80041557  0.20186633  0.43757118     0.98100
C2963       C  0.80564888  0.12245178  0.43934038     0.93000
O2964       O  0.82765609  0.12954089  0.44983448    -0.83100
C2965       C  0.93627218  0.36657372  0.66607538     0.01500
C2966       C  0.90933958  0.36475977  0.66719944     0.01400
C2967       C  0.88697532  0.34492565  0.65505139    -0.19100
C2968       C  0.89021988  0.32584141  0.64236116     0.01500
C2969       C  0.91746435  0.32832713  0.64085295     0.01400
C2970       C  0.93984627  0.34837072  0.65279720    -0.19100
H2971       H  0.96018405  0.34898063  0.65229805     0.03500
H2972       H  0.86643818  0.34381246  0.65596660     0.03500
C2973       C  0.64550899  0.07145446  0.67401449     0.01500
C2974       C  0.64212469  0.09563620  0.67176976     0.01400
C2975       C  0.65815521  0.11620981  0.65703295    -0.19100
C2976       C  0.67707011  0.11310354  0.64422839     0.01500
C2977       C  0.68068906  0.08909424  0.64655825     0.01400
C2978       C  0.66462331  0.06847091  0.66127566    -0.19100
H2979       H  0.66662803  0.04950910  0.66257267     0.03500
H2980       H  0.65608306  0.13512605  0.65563796     0.03500
C2981       C  0.90765840  0.06918803  0.67054918     0.01500
C2982       C  0.93120491  0.09674662  0.67338408     0.01400
C2983       C  0.93416496  0.11925273  0.66090340    -0.19100
C2984       C  0.91415155  0.11514002  0.64580803     0.01500
C2985       C  0.89034404  0.08765136  0.64315179     0.01400
C2986       C  0.88731505  0.06519922  0.65572306    -0.19100
H2987       H  0.86872017  0.04429533  0.65401465     0.03500
H2988       H  0.95287067  0.14011049  0.66249263     0.03500
C2989       C  0.77404120  0.22487798  0.54768098    -0.06900
C2990       C  0.78984135  0.24501001  0.53266315    -0.18100
C2991       C  0.79607355  0.23696008  0.51415421     0.10300
C2992       C  0.78767830  0.20795174  0.51067598    -0.06900
C2993       C  0.77132824  0.18771628  0.52564893    -0.18100
C2994       C  0.76419468  0.19584735  0.54388461     0.10300
S2995       S  0.81343890  0.26484149  0.49547943    -0.33100
S2996       S  0.74017013  0.16828362  0.56083290    -0.33100
H2997       H  0.76170293  0.17338309  0.57491257     0.28300
H2998       H  0.79535360  0.24858205  0.47957784     0.28300
H2999       H  0.79663580  0.26730236  0.53514471     0.18900
H3000       H  0.76392784  0.16532459  0.52319102     0.18900
C3001       C  0.86463891  0.30382872  0.63126903    -0.06900
C3002       C  0.86534629  0.30215627  0.61004394    -0.18100
C3003       C  0.84064407  0.28531920  0.59881511     0.10300
C3004       C  0.81411415  0.27134267  0.60869208    -0.06900
C3005       C  0.81331921  0.27219085  0.62989994    -0.18100
C3006       C  0.83830066  0.28696947  0.64128637     0.10300
S3007       S  0.84387846  0.28403469  0.57177808    -0.33100
S3008       S  0.83506950  0.28363068  0.66852139    -0.33100
H3009       H  0.86278481  0.28842608  0.67192871     0.28300
H3010       H  0.82587350  0.25438962  0.57091321     0.28300
H3011       H  0.88492639  0.31488554  0.60193815     0.18900
H3012       H  0.79300337  0.26151623  0.63765289     0.18900
C3013       C  0.69401348  0.13647510  0.62970021    -0.06900
C3014       C  0.72313067  0.15380035  0.63341480    -0.18100
C3015       C  0.73928412  0.17962624  0.62294722     0.10300
C3016       C  0.72589312  0.18854093  0.60840815    -0.06900
C3017       C  0.69698503  0.17019907  0.60398142    -0.18100
C3018       C  0.68104066  0.14435602  0.61430333     0.10300
S3019       S  0.77609914  0.20160791  0.62989796    -0.33100
S3020       S  0.64407688  0.12276023  0.60742265    -0.33100
H3021       H  0.64055093  0.09672030  0.61473530     0.28300
H3022       H  0.77835284  0.18164669  0.64242610     0.28300
H3023       H  0.73283642  0.14777732  0.64541992     0.18900
H3024       H  0.68658518  0.17615996  0.59242660     0.18900
C3025       C  0.89707380  0.21630615  0.51362326    -0.06900
C3026       C  0.91916999  0.20986194  0.51495763    -0.18100
C3027       C  0.93573729  0.21566831  0.53236944     0.10300
C3028       C  0.93155788  0.22983567  0.54884634    -0.06900
C3029       C  0.90917739  0.23586494  0.54790170    -0.18100
C3030       C  0.89148650  0.22866332  0.53074188     0.10300
S3031       S  0.96094502  0.20303264  0.53289825    -0.33100
S3032       S  0.86153004  0.23452458  0.53221062    -0.33100
H3033       H  0.84196056  0.20706919  0.52525871     0.28300
H3034       H  0.95681666  0.19608109  0.55357308     0.28300
H3035       H  0.92335829  0.19958433  0.50242092     0.18900
H3036       H  0.90544703  0.24623808  0.56060647     0.18900
C3037       C  0.94523211  0.27687095  0.60980593    -0.06900
C3038       C  0.94556814  0.29995599  0.59966260    -0.18100
C3039       C  0.93608360  0.31690828  0.60907352     0.10300
C3040       C  0.92348717  0.30911091  0.62853987    -0.06900
C3041       C  0.92240488  0.28555429  0.63844494    -0.18100
C3042       C  0.93442309  0.27034645  0.62978529     0.10300
S3043       S  0.94292330  0.34915197  0.59584800    -0.33100
S3044       S  0.93857867  0.24592548  0.64622667    -0.33100
H3045       H  0.96198928  0.24705311  0.63622478     0.28300
H3046       H  0.93089697  0.35967244  0.60977366     0.28300
H3047       H  0.95490004  0.30583694  0.58465399     0.18900
H3048       H  0.91448489  0.28064878  0.65386994     0.18900
C3049       C  0.92118488  0.13911694  0.63152100    -0.06900
C3050       C  0.93905496  0.14235470  0.61517609    -0.18100
C3051       C  0.95074334  0.16682138  0.60280791     0.10300
C3052       C  0.94350890  0.18834878  0.60633383    -0.06900
C3053       C  0.92337580  0.18354820  0.62141976    -0.18100
C3054       C  0.91366636  0.16039047  0.63487533     0.10300
S3055       S  0.97432304  0.16964685  0.58245496    -0.33100
S3056       S  0.89393331  0.16111724  0.65669438    -0.33100
H3057       H  0.89557524  0.14024853  0.66844627     0.28300
H3058       H  0.97238363  0.14290872  0.58523504     0.28300
H3059       H  0.94491198  0.12611383  0.61274031     0.18900
H3060       H  0.91642442  0.19889696  0.62360480     0.18900
C3061       C  0.80095725  0.10958207  0.51280600    -0.06900
C3062       C  0.78950080  0.11798016  0.52853668    -0.18100
C3063       C  0.77987831  0.10201829  0.54646625     0.10300
C3064       C  0.78154434  0.07681282  0.54856512    -0.06900
C3065       C  0.79458590  0.06947004  0.53306461    -0.18100
C3066       C  0.80392287  0.08533454  0.51516031     0.10300
S3067       S  0.76413729  0.11363302  0.56552459    -0.33100
S3068       S  0.81817378  0.07291842  0.49554250    -0.33100
H3069       H  0.80683394  0.08108340  0.47929552     0.28300
H3070       H  0.77787051  0.14228938  0.55923297     0.28300
H3071       H  0.78766969  0.13692878  0.52656626     0.18900
H3072       H  0.79672775  0.05063001  0.53462836     0.18900
C3073       C  0.81479503  0.06197814  0.60743234    -0.06900
C3074       C  0.83325631  0.05127062  0.60301955    -0.18100
C3075       C  0.85933638  0.06115191  0.61306413     0.10300
C3076       C  0.86716822  0.08169111  0.62846253    -0.06900
C3077       C  0.84966256  0.09335947  0.63220061    -0.18100
C3078       C  0.82433044  0.08474634  0.62146442     0.10300
S3079       S  0.88135648  0.04620287  0.60595709    -0.33100
S3080       S  0.80454265  0.10243686  0.62748747    -0.33100
H3081       H  0.82754409  0.12740054  0.63537901     0.28300
H3082       H  0.90725599  0.06952022  0.61224001     0.28300
H3083       H  0.82734127  0.03493887  0.59161959     0.18900
H3084       H  0.85485783  0.10803025  0.64456778     0.18900
C3085       C  0.72771204  0.06286424  0.60837222    -0.06900
C3086       C  0.73471071  0.06863260  0.62891245    -0.18100
C3087       C  0.72168818  0.07987314  0.64119858     0.10300
C3088       C  0.69959711  0.08376739  0.63320227    -0.06900
C3089       C  0.69241654  0.07792912  0.61265751    -0.18100
C3090       C  0.70606442  0.06746130  0.60017269     0.10300
S3091       S  0.73370482  0.08804238  0.66710508    -0.33100
S3092       S  0.69290301  0.05838378  0.57455043    -0.33100
H3093       H  0.71522774  0.05550668  0.56644557     0.28300
H3094       H  0.72530825  0.10856843  0.67006785     0.28300
H3095       H  0.74967506  0.06325430  0.63570282     0.18900
H3096       H  0.67503566  0.08019546  0.60652130     0.18900
C3097       C  0.54278824  0.45644831  0.76834059    -0.06900
C3098       C  0.52377888  0.43515241  0.78162016    -0.18100
C3099       C  0.51535750  0.44200886  0.79972251     0.10300
C3100       C  0.52592546  0.47089330  0.80467912    -0.06900
C3101       C  0.54483791  0.49221785  0.79137147    -0.18100
C3102       C  0.55352453  0.48529834  0.77337415     0.10300
S3103       S  0.98670684  0.41147280  0.81467939    -0.33100
S3104       S  0.58204160  0.01454401  0.75747540    -0.33100
H3105       H  0.59850450  0.00126740  0.75472224     0.28300
H3106       H  0.99965646  0.42350090  0.83332801     0.28300
H3107       H  0.51618241  0.41295230  0.77819070     0.18900
H3108       H  0.55563519  0.01560370  0.79443124     0.18900
C3109       C  0.50884949  0.41277456  0.70581727    -0.06900
C3110       C  0.01134305  0.41448230  0.68522804    -0.18100
C3111       C  0.98808497  0.40273628  0.67192775     0.10300
C3112       C  0.96043009  0.38499821  0.67968968    -0.06900
C3113       C  0.95660534  0.38181282  0.70080046    -0.18100
C3114       C  0.97970472  0.39485989  0.71410212     0.10300
S3115       S  0.99391665  0.41053390  0.64510978    -0.33100
S3116       S  0.47456993  0.39300389  0.74091919    -0.33100
H3117       H  0.49823405  0.38999227  0.74566074     0.28300
H3118       H  0.02293673  0.43104107  0.64648377     0.28300
H3119       H  0.53337366  0.42761336  0.67845183     0.18900
H3120       H  0.93573126  0.36783536  0.70702431     0.18900
C3121       C  0.62791654  0.04759718  0.68808050    -0.06900
C3122       C  0.59886735  0.03047629  0.68400215    -0.18100
C3123       C  0.58237097  0.00436484  0.69409429     0.10300
C3124       C  0.59581522  0.49666819  0.71010503    -0.06900
C3125       C  0.62454675  0.51458863  0.71538845    -0.18100
C3126       C  0.64046862  0.03929425  0.70344629     0.10300
S3127       S  0.54564176  0.98286147  0.68677958    -0.33100
S3128       S  0.67743489  0.06178689  0.71007428    -0.33100
H3129       H  0.67808900  0.04489768  0.72615888     0.28300
H3130       H  0.54656997  0.50451110  0.67312960     0.28300
H3131       H  0.58949148  0.03691486  0.67202561     0.18900
H3132       H  0.63387796  0.50806979  0.72734738     0.18900
C3133       C  0.54357911  0.11039449  0.76814619    -0.06900
C3134       C  0.53127007  0.11743557  0.78432008    -0.18100
C3135       C  0.52260746  0.10125368  0.80217849     0.10300
C3136       C  0.52640349  0.07731952  0.80425022    -0.06900
C3137       C  0.53763764  0.06964002  0.78781883    -0.18100
C3138       C  0.54606683  0.08561843  0.76984156     0.10300
S3139       S  0.50862692  0.11338423  0.82212016    -0.33100
S3140       S  0.56168098  0.07461899  0.75023623    -0.33100
H3141       H  0.54930036  0.04600129  0.75648285     0.28300
H3142       H  0.48153815  0.08892594  0.82119419     0.28300
H3143       H  0.52857588  0.13597808  0.78313848     0.18900
H3144       H  0.54027053  0.05110843  0.78915565     0.18900
C3145       C  0.50735743  0.12265298  0.70906019    -0.06900
C3146       C  0.48847673  0.13253115  0.71423930    -0.18100
C3147       C  0.96232367  0.12227325  0.70339583     0.10300
C3148       C  0.95482710  0.10249720  0.68756118    -0.06900
C3149       C  0.97234201  0.09093490  0.68331988    -0.18100
C3150       C  0.99826805  0.10020385  0.69352492     0.10300
S3151       S  0.93857579  0.13512926  0.71080017    -0.33100
S3152       S  0.01940775  0.08429809  0.68659250    -0.33100
H3153       H  0.49703159  0.05984365  0.67811773     0.28300
H3154       H  0.95519886  0.15232656  0.72689781     0.28300
H3155       H  0.49455012  0.14856426  0.72585574     0.18900
H3156       H  0.96632190  0.07562083  0.67118202     0.18900
C3157       C  0.62323685  0.10119835  0.68492810    -0.06900
C3158       C  0.63111157  0.10866690  0.70523082    -0.18100
C3159       C  0.61799011  0.12034772  0.71713336     0.10300
C3160       C  0.59605532  0.12422658  0.70862184    -0.06900
C3161       C  0.58855594  0.11704482  0.68831374    -0.18100
C3162       C  0.60115834  0.10484330  0.67659666     0.10300
S3163       S  0.63218576  0.13198531  0.74229229    -0.33100
S3164       S  0.58885172  0.09552475  0.65082395    -0.33100
H3165       H  0.59789824  0.07546333  0.64812178     0.28300
H3166       H  0.60981914  0.13489715  0.75029889     0.28300
H3167       H  0.64869508  0.10686558  0.71150098     0.18900
H3168       H  0.57357149  0.12211023  0.68121816     0.18900
C3169       C  0.89342143  0.45703691  0.76978907    -0.06900
C3170       C  0.88719869  0.47182759  0.78457644    -0.18100
C3171       C  0.90170264  0.47963662  0.80303516     0.10300
C3172       C  0.92296002  0.47245651  0.80703897    -0.06900
C3173       C  0.92947226  0.45789223  0.79231324    -0.18100
C3174       C  0.91509065  0.45027886  0.77363903     0.10300
S3175       S  0.89277904  0.99790561  0.82035336    -0.33100
S3176       S  0.92382496  0.43102153  0.75539185    -0.33100
H3177       H  0.94582409  0.43061577  0.76656313     0.28300
H3178       H  0.89886246  0.98609271  0.83742110     0.28300
H3179       H  0.87043104  0.47690451  0.78185729     0.18900
H3180       H  0.94617666  0.45285950  0.79540734     0.18900
C3181       C  0.88476986  0.49501732  0.70899296    -0.06900
C3182       C  0.88963846  0.99445415  0.68714022    -0.18100
C3183       C  0.89963929  0.01897104  0.67501761     0.10300
C3184       C  0.90267786  0.04439336  0.68342089    -0.06900
C3185       C  0.89733586  0.04497365  0.70416910    -0.18100
C3186       C  0.88791605  0.02058705  0.71633880     0.10300
S3187       S  0.90744446  0.01615529  0.64884149    -0.33100
S3188       S  0.88102467  0.02321572  0.74266050    -0.33100
H3189       H  0.89146102  0.50607455  0.75058058     0.28300
H3190       H  0.92716943  0.04517875  0.64593291     0.28300
H3191       H  0.88921915  0.47531360  0.68203528     0.18900
H3192       H  0.89952152  0.06426865  0.71077857     0.18900
C3193       C  0.88372507  0.40884039  0.70886379    -0.06900
C3194       C  0.90259117  0.42414825  0.69305440    -0.18100
C3195       C  0.91213797  0.41077735  0.67946313     0.10300
C3196       C  0.90283004  0.38143482  0.68188790    -0.06900
C3197       C  0.88564217  0.36674558  0.69853249    -0.18100
C3198       C  0.87675439  0.38024228  0.71232803     0.10300
S3199       S  0.93501321  0.43209617  0.65901304    -0.33100
S3200       S  0.85721256  0.35988939  0.73426447    -0.33100
H3201       H  0.86459716  0.38337307  0.74691741     0.28300
H3202       H  0.92855524  0.40984690  0.64538477     0.28300
H3203       H  0.90878022  0.44630369  0.69059412     0.18900
H3204       H  0.87923224  0.34446576  0.70085237     0.18900
C3205       C  0.94021707  0.06046202  0.21502020    -0.06900
C3206       C  0.96817464  0.06530688  0.21416044    -0.10900
C3207       C  0.97769852  0.05624188  0.19763744     0.10300
C3208       C  0.95915053  0.04240897  0.18126919    -0.06900
C3209       C  0.93123509  0.03740154  0.18205495    -0.18100
C3210       C  0.92145911  0.04613240  0.19862806     0.10300
S3211       S  0.51105765  0.05504348  0.19935201    -0.33100
S3212       S  0.88469695  0.03744530  0.19756588    -0.33100
H3213       H  0.87993002  0.03443206  0.21847354     0.28300
H3214       H  0.50209003  0.02834761  0.19050031     0.28300
H3215       H  0.98279135  0.07623154  0.22647924     0.18900
H3216       H  0.91686916  0.02652147  0.16959105     0.18900
C3217       C  0.98581648  0.11413923  0.27133146    -0.06900
C3218       C  0.00236767  0.14326466  0.26641990    -0.18100
C3219       C  0.52668869  0.15840755  0.27733969     0.10300
C3220       C  0.53740413  0.14679392  0.29189169    -0.06900
C3221       C  0.52223839  0.11732971  0.29571683    -0.18100
C3222       C  0.49578815  0.09957350  0.28635033     0.10300
S3223       S  0.54341401  0.19598906  0.27118955    -0.33100
S3224       S  0.47570583  0.06273419  0.29412558    -0.33100
H3225       H  0.99902118  0.06479721  0.30453939     0.28300
H3226       H  0.57030259  0.20473745  0.27959459     0.28300
H3227       H  0.99440669  0.15284130  0.25562191     0.18900
H3228       H  0.53028193  0.10862964  0.30712225     0.18900
C3229       C  0.87199412  0.47614302  0.30286718    -0.06900
C3230       C  0.86862829  0.47335651  0.28178618    -0.18100
C3231       C  0.88231804  0.49702166  0.26892703     0.10300
C3232       C  0.90083464  0.02621823  0.27863330    -0.06900
C3233       C  0.90315779  0.02828458  0.29979069    -0.18100
C3234       C  0.88926769  0.00407329  0.31223119     0.10300
S3235       S  0.87567002  0.49098598  0.24225868    -0.33100
S3236       S  0.89452378  0.00945386  0.33924179    -0.33100
H3237       H  0.88977737  0.48190119  0.34349228     0.28300
H3238       H  0.91087307  0.01117838  0.23946207     0.28300
H3239       H  0.85419800  0.45277448  0.27530194     0.18900
H3240       H  0.91536163  0.04906892  0.30670288     0.18900
C3241       C  0.94619900  0.40597829  0.21602077    -0.06900
C3242       C  0.96004589  0.39923355  0.20078359    -0.18100
C3243       C  0.96693055  0.41333682  0.18208471     0.10300
C3244       C  0.96072425  0.43540733  0.17859208    -0.06900
C3245       C  0.94760198  0.44277090  0.19390511    -0.18100
C3246       C  0.94020103  0.42829053  0.21257783     0.10300
S3247       S  0.98205699  0.40113308  0.16292239    -0.33100
S3248       S  0.92173206  0.43749502  0.23118921    -0.33100
H3249       H  0.92393898  0.46146756  0.22099778     0.28300
H3250       H  0.96918776  0.40688364  0.14635114     0.28300
H3251       H  0.96460229  0.38202111  0.20320991     0.18900
H3252       H  0.94324835  0.46004745  0.19117934     0.18900
C3253       C  0.53340368  0.41410482  0.29419164    -0.06900
C3254       C  0.50895849  0.40911571  0.30493691    -0.18100
C3255       C  0.98315860  0.39784129  0.29767701     0.10300
C3256       C  0.98119828  0.39352542  0.27651174    -0.06900
C3257       C  0.50500651  0.40027927  0.26321440    -0.18100
C3258       C  0.53139405  0.40991566  0.27296869     0.10300
S3259       S  0.95282398  0.38899859  0.31362739    -0.33100
S3260       S  0.56138335  0.41405464  0.25843971    -0.33100
H3261       H  0.54852676  0.40948281  0.23922937     0.28300
H3262       H  0.93216431  0.36715784  0.30164291     0.28300
H3263       H  0.51018583  0.41197947  0.32122733     0.18900
H3264       H  0.50314653  0.39630935  0.24705990     0.18900
C3265       C  0.86857180  0.41809145  0.30050918    -0.06900
C3266       C  0.85383520  0.39960972  0.28450981    -0.18100
C3267       C  0.86707685  0.38910350  0.27173114     0.10300
C3268       C  0.89560839  0.39608717  0.27544543    -0.06900
C3269       C  0.91108989  0.41660080  0.29027837    -0.18100
C3270       C  0.89783756  0.42736538  0.30299700     0.10300
S3271       S  0.84653758  0.36768651  0.25058228    -0.33100
S3272       S  0.91903498  0.45163519  0.32267603    -0.33100
H3273       H  0.89727621  0.44133252  0.33726915     0.28300
H3274       H  0.86994474  0.37557896  0.23767487     0.28300
H3275       H  0.83162326  0.39309709  0.28207089     0.18900
H3276       H  0.93326653  0.42316408  0.29275105     0.18900
C3277       C  0.59813816  0.06179970  0.21417908    -0.06900
C3278       C  0.57788090  0.03286325  0.21262444    -0.18100
C3279       C  0.56108775  0.02218921  0.19522571     0.10300
C3280       C  0.56471896  0.04071321  0.17887339    -0.06900
C3281       C  0.58470614  0.06971058  0.18057553    -0.18100
C3282       C  0.60130889  0.08050699  0.19798270     0.10300
S3283       S  0.53456102  0.98514087  0.19520556    -0.33100
S3284       S  0.62564661  0.11843070  0.19849636    -0.33100
H3285       H  0.62647929  0.12132500  0.21963649     0.28300
H3286       H  0.51417773  0.49192391  0.18731456     0.28300
H3287       H  0.57539978  0.01841422  0.22492857     0.18900
H3288       H  0.58710101  0.08418072  0.16830352     0.18900
C3289       C  0.60930245  0.02054668  0.27270774    -0.06900
C3290       C  0.62262896  0.00400094  0.26990727    -0.18100
C3291       C  0.61510654  0.47926262  0.27763733     0.10300
C3292       C  0.59169668  0.46858780  0.29102497    -0.06900
C3293       C  0.57677227  0.48351420  0.29297243    -0.18100
C3294       C  0.58434118  0.00865018  0.28498753     0.10300
S3295       S  0.63563314  0.46170169  0.27304125    -0.33100
S3296       S  0.56317747  0.02524104  0.28964273    -0.33100
H3297       H  0.58656127  0.05229220  0.29199090     0.28300
H3298       H  0.61541004  0.43437960  0.27979784     0.28300
H3299       H  0.64046276  0.01115644  0.25963931     0.18900
H3300       H  0.55880514  0.47545301  0.30323689     0.18900
C3301       C  0.61117824  0.10961722  0.27499797    -0.06900
C3302       C  0.60082888  0.12475795  0.26384282    -0.18100
C3303       C  0.59326636  0.14318107  0.27338108     0.10300
C3304       C  0.59287059  0.14422800  0.29480407    -0.06900
C3305       C  0.60173712  0.12772085  0.30593290    -0.18100
C3306       C  0.61232645  0.11181848  0.29640079     0.10300
S3307       S  0.58868685  0.16760069  0.25731155    -0.33100
S3308       S  0.62886175  0.09716500  0.31277804    -0.33100
H3309       H  0.63728301  0.08410835  0.29822506     0.28300
H3310       H  0.60421482  0.19110882  0.27005664     0.28300
H3311       H  0.60109930  0.12425622  0.24744824     0.18900
H3312       H  0.60229667  0.12883706  0.32234464     0.18900
C3313       C  0.69889922  0.42462186  0.55771571    -0.06900
C3314       C  0.68801556  0.44311140  0.55509164    -0.18100
C3315       C  0.70181291  0.47066393  0.56322386     0.10300
C3316       C  0.72707287  0.48007482  0.57498841    -0.06900
C3317       C  0.73647447  0.46028824  0.57880954    -0.18100
C3318       C  0.72283660  0.43300489  0.57027021     0.10300
S3319       S  0.68539885  0.99056321  0.55720164    -0.33100
S3320       S  0.73737276  0.40996578  0.57565829    -0.33100
H3321       H  0.71128516  0.38441772  0.57419584     0.28300
H3322       H  0.66280411  0.97131325  0.54492573     0.28300
H3323       H  0.66967561  0.43658822  0.54537775     0.18900
H3324       H  0.75507987  0.46580149  0.58777271     0.18900
C3325       C  0.70702754  0.30972904  0.55998282    -0.06900
C3326       C  0.73629395  0.32039391  0.55793116    -0.18100
C3327       C  0.74966591  0.30622026  0.56645398     0.10300
C3328       C  0.73345621  0.28072609  0.57798247    -0.06900
C3329       C  0.70460196  0.27202266  0.58173762    -0.18100
C3330       C  0.69134529  0.28607842  0.57281135     0.10300
S3331       S  0.78687862  0.31969085  0.56044926    -0.33100
S3332       S  0.65412737  0.27234704  0.57799994    -0.33100
H3333       H  0.65459289  0.29839620  0.57510386     0.28300
H3334       H  0.79164524  0.34419213  0.54964648     0.28300
H3335       H  0.74828832  0.33861976  0.54811568     0.18900
H3336       H  0.69144249  0.25338522  0.59072797     0.18900
C3337       C  0.52807373  0.27581222  0.57638460    -0.06900
C3338       C  0.54296863  0.26078783  0.57348824    -0.18100
C3339       C  0.56939148  0.27289433  0.56355029     0.10300
C3340       C  0.58229462  0.30145722  0.55656674    -0.06900
C3341       C  0.56825711  0.31697398  0.56027617    -0.18100
C3342       C  0.54115275  0.30445135  0.56915767     0.10300
S3343       S  0.58435314  0.25018899  0.55818108    -0.33100
S3344       S  0.52275696  0.32483306  0.56882883    -0.33100
H3345       H  0.04450547  0.34872183  0.55554652     0.28300
H3346       H  0.56498100  0.22621570  0.56945308     0.28300
H3347       H  0.53297659  0.23848006  0.57727785     0.18900
H3348       H  0.57784596  0.33876662  0.55493061     0.18900
C3349       C  0.76423526  0.04442663  0.40487930    -0.06900
C3350       C  0.78885531  0.05135849  0.41636476    -0.18100
C3351       C  0.80456856  0.07759219  0.42597038     0.10300
C3352       C  0.79485750  0.09759925  0.42531007    -0.06900
C3353       C  0.77251982  0.09230599  0.41188886    -0.18100
C3354       C  0.75834430  0.06687065  0.40079384     0.10300
S3355       S  0.83613279  0.08322419  0.43918132    -0.33100
S3356       S  0.73668880  0.06702948  0.38013857    -0.33100
H3357       H  0.74489336  0.05177098  0.36715338     0.28300
H3358       H  0.85344679  0.11001153  0.43010125     0.28300
H3359       H  0.79539538  0.03552254  0.41855811     0.18900
H3360       H  0.76634101  0.10839783  0.40969466     0.18900
C3361       C  0.71156724  0.44544008  0.43367494    -0.06900
C3362       C  0.70026296  0.45293900  0.45023371    -0.18100
C3363       C  0.69488250  0.43874004  0.46884031     0.10300
C3364       C  0.69867670  0.41481610  0.47078547    -0.06900
C3365       C  0.70831281  0.40622156  0.45392235    -0.18100
C3366       C  0.71569228  0.42165895  0.43567352     0.10300
S3367       S  0.68494420  0.45340389  0.48972165    -0.33100
S3368       S  0.73167943  0.41127961  0.41589349    -0.33100
H3369       H  0.73664342  0.39228566  0.42757908     0.28300
H3370       H  0.70171577  0.44906764  0.50412600     0.28300
H3371       H  0.69681128  0.47101694  0.44900384     0.18900
H3372       H  0.70975513  0.38703311  0.45491204     0.18900
C3373       C  0.76404072  0.45806006  0.37575464    -0.06900
C3374       C  0.75298509  0.44300213  0.35771173    -0.18100
C3375       C  0.76816895  0.43324634  0.34621378     0.10300
C3376       C  0.79463148  0.43743731  0.35345575    -0.06900
C3377       C  0.80489697  0.45097463  0.37211925    -0.18100
C3378       C  0.79003266  0.46135411  0.38330123     0.10300
S3379       S  0.75319227  0.41765834  0.32189976    -0.33100
S3380       S  0.80581125  0.47910913  0.40683212    -0.33100
H3381       H  0.78023852  0.47277422  0.41649262     0.28300
H3382       H  0.77460161  0.41238685  0.31494717     0.28300
H3383       H  0.73311769  0.44029295  0.35184178     0.18900
H3384       H  0.82527415  0.45448746  0.37764592     0.18900
C3385       C  0.62778508  0.43416914  0.34702509    -0.06900
C3386       C  0.62740407  0.44409552  0.36654773    -0.18100
C3387       C  0.65151752  0.45524564  0.37905679     0.10300
C3388       C  0.67704142  0.45727370  0.37180202    -0.06900
C3389       C  0.67719300  0.44670724  0.35247038    -0.18100
C3390       C  0.65291098  0.43521466  0.34002228     0.10300
S3391       S  0.64845230  0.46720887  0.40386953    -0.33100
S3392       S  0.65443050  0.42303627  0.31487436    -0.33100
H3393       H  0.68313186  0.42993657  0.31553063     0.28300
H3394       H  0.66828753  0.46138486  0.41332937     0.28300
H3395       H  0.60847392  0.44410687  0.37183471     0.18900
H3396       H  0.69677149  0.44866077  0.34674626     0.18900
C3397       C  0.75766898  0.23857971  0.40404969    -0.06900
C3398       C  0.78703464  0.24901409  0.40089715    -0.18100
C3399       C  0.80153039  0.23637306  0.41022797     0.10300
C3400       C  0.78643579  0.21247517  0.42307835    -0.06900
C3401       C  0.75669239  0.19978299  0.42389794    -0.18100
C3402       C  0.74218778  0.21227794  0.41466778     0.10300
S3403       S  0.83930892  0.25154280  0.40581706    -0.33100
S3404       S  0.70408108  0.19528710  0.41838015    -0.33100
H3405       H  0.70042479  0.17135371  0.42942259     0.28300
H3406       H  0.84260573  0.27282403  0.39192708     0.28300
H3407       H  0.79947992  0.26800594  0.39210248     0.18900
H3408       H  0.74471128  0.18077988  0.43299970     0.18900
C3409       C  0.71367009  0.28967897  0.43664895    -0.06900
C3410       C  0.73100704  0.31780621  0.44295411    -0.18100
C3411       C  0.72594621  0.32754893  0.46124368     0.10300
C3412       C  0.70148252  0.30928819  0.47288119    -0.06900
C3413       C  0.68492991  0.28078989  0.46683136    -0.18100
C3414       C  0.69142319  0.27048764  0.44948060     0.10300
S3415       S  0.75277780  0.36252049  0.46909728    -0.33100
S3416       S  0.67138841  0.23240948  0.44578575    -0.33100
H3417       H  0.67921489  0.23161008  0.42572678     0.28300
H3418       H  0.73358798  0.37176849  0.47339076     0.28300
H3419       H  0.74940050  0.33200416  0.43391655     0.18900
H3420       H  0.66704093  0.26604871  0.47605313     0.18900
C3421       C  0.63059034  0.22258225  0.34492230    -0.06900
C3422       C  0.62660487  0.22485857  0.36572221    -0.18100
C3423       C  0.64969014  0.23958901  0.37888717     0.10300
C3424       C  0.67772218  0.24953835  0.37182271    -0.06900
C3425       C  0.68184542  0.24793210  0.35100897    -0.18100
C3426       C  0.65894213  0.23624422  0.33744200     0.10300
S3427       S  0.64133452  0.24380650  0.40447082    -0.33100
S3428       S  0.66759374  0.23978465  0.31078202    -0.33100
H3429       H  0.64256874  0.23927619  0.30426338     0.28300
H3430       H  0.66325398  0.27205460  0.40627842     0.28300
H3431       H  0.60544128  0.21448838  0.37208313     0.18900
H3432       H  0.70327147  0.25632277  0.34522038     0.18900
C3433       C  0.76357127  0.33130733  0.37729712    -0.06900
C3434       C  0.79239445  0.34965691  0.38201330    -0.18100
C3435       C  0.80880913  0.37514251  0.37137423     0.10300
C3436       C  0.79652978  0.38265400  0.35529897    -0.06900
C3437       C  0.76749876  0.36530529  0.35118455    -0.18100
C3438       C  0.75074867  0.34001556  0.36216030     0.10300
S3439       S  0.84570550  0.39660235  0.37845018    -0.33100
S3440       S  0.71389559  0.31847762  0.35516961    -0.33100
H3441       H  0.71165922  0.33967134  0.34414587     0.28300
H3442       H  0.84888097  0.42283386  0.37190005     0.28300
H3443       H  0.80244303  0.34381323  0.39390297     0.18900
H3444       H  0.75825526  0.37076813  0.33860350     0.18900
C3445       C  0.96470335  0.24786277  0.40732090    -0.06900
C3446       C  0.94444656  0.21932447  0.40286943    -0.18100
C3447       C  0.91718270  0.20573627  0.41171805     0.10300
C3448       C  0.90967028  0.22085560  0.42551428    -0.06900
C3449       C  0.92858437  0.25000352  0.42824365    -0.18100
C3450       C  0.95577575  0.26358968  0.41962047     0.10300
S3451       S  0.89248870  0.16909784  0.40523311    -0.33100
S3452       S  0.97934874  0.30060323  0.42609743    -0.33100
H3453       H  0.96047291  0.30471898  0.43834557     0.28300
H3454       H  0.90965099  0.16558951  0.39087064     0.28300
H3455       H  0.94993041  0.20682019  0.39322847     0.18900
H3456       H  0.92274101  0.26197434  0.43832947     0.18900
C3457       C  0.56320252  0.29021214  0.43370933    -0.06900
C3458       C  0.58540117  0.31845047  0.43447063    -0.18100
C3459       C  0.60271919  0.32913563  0.45174391     0.10300
C3460       C  0.59766144  0.31103284  0.46879776    -0.06900
C3461       C  0.57641035  0.28234083  0.46745322    -0.18100
C3462       C  0.55932423  0.27170609  0.45015661     0.10300
S3463       S  0.63151606  0.36559567  0.45129195    -0.33100
S3464       S  0.53341597  0.23417119  0.44903149    -0.33100
H3465       H  0.53696366  0.22710358  0.46897539     0.28300
H3466       H  0.62648784  0.37281670  0.43178425     0.28300
H3467       H  0.58863193  0.33237951  0.42167401     0.18900
H3468       H  0.57300611  0.26817283  0.48012507     0.18900
C3469       C  0.55117082  0.32990283  0.37371649    -0.06900
C3470       C  0.55950162  0.32868017  0.35381180    -0.18100
C3471       C  0.56993828  0.35235163  0.34078697     0.10300
C3472       C  0.57203769  0.37805701  0.34772347    -0.06900
C3473       C  0.56425646  0.37946028  0.36777099    -0.18100
C3474       C  0.55410905  0.35586392  0.38085068     0.10300
S3475       S  0.57839237  0.34756359  0.31515506    -0.33100
S3476       S  0.54424244  0.36012984  0.40613497    -0.33100
H3477       H  0.54671807  0.33792827  0.41524276     0.28300
H3478       H  0.59484377  0.37641336  0.30984283     0.28300
H3479       H  0.55648434  0.30869113  0.34798719     0.18900
H3480       H  0.56497364  0.39875251  0.37304965     0.18900
C3481       C  0.57076388  0.21779607  0.34644529    -0.06900
C3482       C  0.55006960  0.20141901  0.36096235    -0.18100
C3483       C  0.53904300  0.21359721  0.37424970     0.10300
C3484       C  0.54788437  0.24301438  0.37265265    -0.06900
C3485       C  0.56982378  0.25969959  0.35885269    -0.18100
C3486       C  0.58108241  0.24744097  0.34562802     0.10300
S3487       S  0.51492461  0.19039319  0.39346117    -0.33100
S3488       S  0.60768182  0.27058896  0.32766135    -0.33100
H3489       H  0.60046440  0.25020310  0.31232875     0.28300
H3490       H  0.02584866  0.21147775  0.40866187     0.28300
H3491       H  0.54252674  0.17875074  0.36202128     0.18900
H3492       H  0.57758728  0.28233328  0.35772828     0.18900
C3493       C  0.86713568  0.13747840  0.22766293    -0.06900
C3494       C  0.85280302  0.10763916  0.22930904    -0.18100
C3495       C  0.86492257  0.09313660  0.23911805     0.10300
C3496       C  0.89251402  0.10872599  0.24787667    -0.06900
C3497       C  0.90501845  0.13873350  0.24847936    -0.18100
C3498       C  0.89256956  0.15309228  0.23882014     0.10300
S3499       S  0.84555712  0.05460680  0.23814658    -0.33100
S3500       S  0.91122829  0.19139310  0.24057715    -0.33100
H3501       H  0.88643393  0.19281826  0.24463591     0.28300
H3502       H  0.81920586  0.05124140  0.23185358     0.28300
H3503       H  0.83269339  0.09531800  0.22159273     0.18900
H3504       H  0.92549793  0.15184520  0.25531258     0.18900
C3505       C  0.86387016  0.25597510  0.22404782    -0.06900
C3506       C  0.88385402  0.26028090  0.23917037    -0.18100
C3507       C  0.89675920  0.28545026  0.25064535     0.10300
C3508       C  0.89193834  0.30832233  0.24537760    -0.06900
C3509       C  0.86936749  0.30221785  0.23185405    -0.18100
C3510       C  0.85549253  0.27665706  0.22122970     0.10300
S3511       S  0.91510288  0.28446978  0.27314751    -0.33100
S3512       S  0.82989087  0.27334809  0.20237494    -0.33100
H3513       H  0.80749530  0.24919699  0.21170578     0.28300
H3514       H  0.90684754  0.30113112  0.28453885     0.28300
H3515       H  0.88891559  0.24358537  0.24238696     0.18900
H3516       H  0.86386074  0.31853652  0.22835266     0.18900
C3517       C  0.74964939  0.13423236  0.22320186    -0.06900
C3518       C  0.73233413  0.10469598  0.22180490    -0.18100
C3519       C  0.70543610  0.09054962  0.23085767     0.10300
C3520       C  0.69554640  0.10626563  0.24230789    -0.06900
C3521       C  0.71429975  0.13572296  0.24498424    -0.18100
C3522       C  0.74099057  0.14972312  0.23553630     0.10300
S3523       S  0.68332344  0.05277765  0.22587067    -0.33100
S3524       S  0.76294731  0.18749188  0.23956895    -0.33100
H3525       H  0.78894304  0.18758000  0.23831081     0.28300
H3526       H  0.70102849  0.05005661  0.21155805     0.28300
H3527       H  0.73921542  0.09288832  0.21239536     0.18900
H3528       H  0.70816071  0.14867937  0.25357399     0.18900
C3529       C  0.92973782  0.07683367  0.07439589    -0.06900
C3530       C  0.91929859  0.04729054  0.07239835    -0.18100
C3531       C  0.93273705  0.03385220  0.08186154     0.10300
C3532       C  0.95725567  0.04999227  0.09368308    -0.06900
C3533       C  0.96933484  0.07961360  0.09414520    -0.18100
C3534       C  0.95601568  0.09324152  0.08482851     0.10300
S3535       S  0.91956271  0.49642213  0.07590497    -0.33100
S3536       S  0.97175294  0.13130653  0.08857020    -0.33100
H3537       H  0.99898191  0.13648289  0.09426427     0.28300
H3538       H  0.94576906  0.49694749  0.07741032     0.28300
H3539       H  0.89996774  0.03386617  0.06426037     0.18900
H3540       H  0.98815629  0.09198505  0.10326783     0.18900
C3541       C  0.88001150  0.12609625  0.10104395    -0.06900
C3542       C  0.90054983  0.14201782  0.11574047    -0.18100
C3543       C  0.89322431  0.14988436  0.13390946     0.10300
C3544       C  0.86445934  0.14173677  0.13773490    -0.06900
C3545       C  0.84400774  0.12626287  0.12274690    -0.18100
C3546       C  0.85137848  0.11829528  0.10455685     0.10300
S3547       S  0.92150155  0.16902685  0.15178591    -0.33100
S3548       S  0.82370611  0.09696030  0.08666669    -0.33100
H3549       H  0.80040553  0.09289886  0.09851502     0.28300
H3550       H  0.91951337  0.19396092  0.15002695     0.28300
H3551       H  0.92258092  0.14790287  0.11318610     0.18900
H3552       H  0.82198928  0.12028478  0.12527425     0.18900
C3553       C  0.92613469  0.15858703  0.04032381    -0.06900
C3554       C  0.94658800  0.18229804  0.05103557    -0.18100
C3555       C  0.96387117  0.20836528  0.04126287     0.10300
C3556       C  0.95878898  0.21171223  0.02063894    -0.06900
C3557       C  0.93739163  0.18831478  0.01021622    -0.18100
C3558       C  0.92213471  0.16154710  0.01945931     0.10300
S3559       S  0.49508739  0.23630140  0.05319368    -0.33100
S3560       S  0.90084258  0.13201839  0.00298201    -0.33100
H3561       H  0.90131276  0.11058937  0.01483270     0.28300
H3562       H  0.51274666  0.25000540  0.03649352     0.28300
H3563       H  0.95059998  0.17981162  0.06683576     0.18900
H3564       H  0.93443689  0.19031111  0.99413515     0.18900
C3565       C  0.92396547  0.37632166  0.06869180    -0.06900
C3566       C  0.90735073  0.38360816  0.08104674    -0.18100
C3567       C  0.91947008  0.40859319  0.09239301     0.10300
C3568       C  0.94897856  0.42790747  0.09092063    -0.06900
C3569       C  0.96477612  0.42293682  0.07630876    -0.18100
C3570       C  0.95225829  0.39817831  0.06440181     0.10300
S3571       S  0.89659004  0.41247339  0.11032609    -0.33100
S3572       S  0.97214769  0.39869862  0.04244702    -0.33100
H3573       H  0.94775549  0.38234256  0.03058008     0.28300
H3574       H  0.91452893  0.41623285  0.12688491     0.28300
H3575       H  0.88518061  0.36811727  0.08368549     0.18900
H3576       H  0.98687199  0.43877997  0.07385127     0.18900
C3577       C  0.86581470  0.24579367  0.13644229    -0.06900
C3578       C  0.85884437  0.26757788  0.13493294    -0.18100
C3579       C  0.86454707  0.28411910  0.11734044     0.10300
C3580       C  0.87869338  0.27978189  0.10088142    -0.06900
C3581       C  0.88521711  0.25776015  0.10214593    -0.18100
C3582       C  0.87856582  0.24050470  0.11946672     0.10300
S3583       S  0.85194671  0.30943597  0.11663840    -0.33100
S3584       S  0.88553569  0.21125583  0.11827021    -0.33100
H3585       H  0.85818509  0.19124984  0.12517536     0.28300
H3586       H  0.84604839  0.30686248  0.09572847     0.28300
H3587       H  0.84836520  0.27151503  0.14746335     0.18900
H3588       H  0.89561662  0.25391511  0.08951934     0.18900
C3589       C  0.83947070  0.28661454  0.04131525    -0.06900
C3590       C  0.82063603  0.29685009  0.04560435    -0.18100
C3591       C  0.79444429  0.28626048  0.03560522     0.10300
C3592       C  0.78678149  0.26519073  0.02066873    -0.06900
C3593       C  0.80394351  0.25288012  0.01774680    -0.18100
C3594       C  0.82988536  0.26286716  0.02813725     0.10300
S3595       S  0.77081911  0.29970549  0.04191658    -0.33100
S3596       S  0.85038740  0.24556050  0.02327502    -0.33100
H3597       H  0.83051992  0.22354853  0.01088921     0.28300
H3598       H  0.78864613  0.31995892  0.05620257     0.28300
H3599       H  0.82671325  0.31362739  0.05663491     0.18900
H3600       H  0.79760490  0.23634682  0.00647507     0.18900
C3601       C  0.92914034  0.28960452  0.04197200    -0.06900
C3602       C  0.92146181  0.28002141  0.02202682    -0.18100
C3603       C  0.93574997  0.26878644  0.01109024     0.10300
C3604       C  0.95937337  0.26836065  0.01988325    -0.06900
C3605       C  0.96793182  0.27925495  0.03947158    -0.18100
C3606       C  0.95289504  0.28936468  0.05072980     0.10300
S3607       S  0.92434451  0.25768664  0.98537856    -0.33100
S3608       S  0.96673924  0.30389614  0.07542345    -0.33100
H3609       H  0.94116276  0.29978374  0.08371822     0.28300
H3610       H  0.93446416  0.23829982  0.98407645     0.28300
H3611       H  0.90524912  0.28279605  0.01445518     0.18900
H3612       H  0.98738120  0.28134861  0.04568719     0.18900
C3613       C  0.62818937  0.07435329  0.07378104    -0.06900
C3614       C  0.60939490  0.04498649  0.07074442    -0.18100
C3615       C  0.58223675  0.03072857  0.07977032     0.10300
C3616       C  0.57319589  0.04614715  0.09205348    -0.06900
C3617       C  0.59066373  0.07581484  0.09328197    -0.18100
C3618       C  0.61784511  0.08996138  0.08476136     0.10300
S3619       S  0.55994508  0.99284927  0.07570284    -0.33100
S3620       S  0.63969354  0.12770629  0.08994635    -0.33100
H3621       H  0.61906707  0.13194978  0.09976382     0.28300
H3622       H  0.57992640  0.49317446  0.05898839     0.28300
H3623       H  0.61607812  0.03245056  0.06221333     0.18900
H3624       H  0.58379140  0.08800914  0.10223052     0.18900
C3625       C  0.72695134  0.12059950  0.10119030    -0.06900
C3626       C  0.74814895  0.14925584  0.10178930    -0.18100
C3627       C  0.76535371  0.16063779  0.11889580     0.10300
C3628       C  0.76157734  0.14281393  0.13588079    -0.06900
C3629       C  0.74126189  0.11371972  0.13466490    -0.18100
C3630       C  0.72434963  0.10240238  0.11747903     0.10300
S3631       S  0.79209257  0.19773213  0.11759986    -0.33100
S3632       S  0.70074797  0.06437142  0.11694366    -0.33100
H3633       H  0.70245208  0.06168591  0.09586550     0.28300
H3634       H  0.77934554  0.20545593  0.13303455     0.28300
H3635       H  0.75080749  0.16313013  0.08906874     0.18900
H3636       H  0.73860291  0.09946315  0.14714085     0.18900
C3637       C  0.73424043  0.20680649  0.01629221    -0.06900
C3638       C  0.73073335  0.20845457  0.03722848    -0.18100
C3639       C  0.72037503  0.18427738  0.04975966     0.10300
C3640       C  0.71326086  0.15761615  0.04113503    -0.06900
C3641       C  0.71694704  0.15607163  0.02027948    -0.18100
C3642       C  0.72817851  0.18034181  0.00793777     0.10300
S3643       S  0.71539267  0.18926231  0.07618921    -0.33100
S3644       S  0.73395484  0.17597511  0.98159835    -0.33100
H3645       H  0.75604782  0.20409661  0.97853809     0.28300
H3646       H  0.70382908  0.16113622  0.08296113     0.28300
H3647       H  0.73480360  0.22849997  0.04373002     0.18900
H3648       H  0.71049965  0.13559043  0.01342955     0.18900
C3649       C  0.83968706  0.07200950  0.04376003    -0.06900
C3650       C  0.83585815  0.08590498  0.02707057    -0.18100
C3651       C  0.81294708  0.07159153  0.01380687     0.10300
C3652       C  0.79165838  0.04347811  0.01857156    -0.06900
C3653       C  0.79389291  0.03057269  0.03644512    -0.18100
C3654       C  0.81769995  0.04437794  0.04902525     0.10300
S3655       S  0.81374374  0.09009510  0.99064143    -0.33100
S3656       S  0.81834843  0.02556881  0.07156612    -0.33100
H3657       H  0.83660114  0.04974848  0.08291982     0.28300
H3658       H  0.79023652  0.06809588  0.98073216     0.28300
H3659       H  0.85166683  0.10758512  0.02366350     0.18900
H3660       H  0.77742178  0.00912585  0.04022954     0.18900
C3661       C  0.71450001  0.07120368  0.04293389    -0.06900
C3662       C  0.70437910  0.04214513  0.04725709    -0.18100
C3663       C  0.71431598  0.02636004  0.03674737     0.10300
C3664       C  0.73465197  0.03959323  0.02126074    -0.06900
C3665       C  0.74609864  0.06877758  0.01779326    -0.18100
C3666       C  0.73697124  0.08494108  0.02870737     0.10300
S3667       S  0.69967708  0.49299353  0.04205523    -0.33100
S3668       S  0.75326192  0.12232052  0.02264763    -0.33100
H3669       H  0.77716560  0.12475856  0.01242219     0.28300
H3670       H  0.72248896  0.48967000  0.03534091     0.28300
H3671       H  0.68821237  0.03142379  0.05875866     0.18900
H3672       H  0.76101825  0.07864928  0.00553632     0.18900
C3673       C  0.74334297  0.38778451  0.75897626    -0.06900
C3674       C  0.74812896  0.37297344  0.74342888    -0.18100
C3675       C  0.77405981  0.38510874  0.73275155     0.10300
C3676       C  0.79683756  0.41215820  0.73870462    -0.06900
C3677       C  0.79029486  0.42814545  0.75222518    -0.18100
C3678       C  0.76469164  0.41629123  0.76279321     0.10300
S3679       S  0.77423954  0.36649415  0.71030060    -0.33100
S3680       S  0.76266107  0.43819213  0.78251592    -0.33100
H3681       H  0.75799039  0.41813195  0.79788603     0.28300
H3682       H  0.79131644  0.39163905  0.69922065     0.28300
H3683       H  0.73134609  0.35187035  0.73933797     0.18900
H3684       H  0.80661218  0.44955988  0.75616381     0.18900
C3685       C  0.62032975  0.26444434  0.75742294    -0.06900
C3686       C  0.59096521  0.24660985  0.75978145    -0.18100
C3687       C  0.57672482  0.21940335  0.75119058     0.10300
C3688       C  0.59219472  0.20927491  0.73974579    -0.06900
C3689       C  0.62123166  0.22863099  0.73575004    -0.18100
C3690       C  0.63526421  0.25591425  0.74438434     0.10300
S3691       S  0.53916875  0.19727190  0.75675117    -0.33100
S3692       S  0.67227425  0.27887938  0.73824045    -0.33100
H3693       H  0.67171899  0.30451201  0.74032240     0.28300
H3694       H  0.53467903  0.21866776  0.76501305     0.28300
H3695       H  0.57940968  0.25322834  0.76967842     0.18900
H3696       H  0.63378664  0.22279122  0.72645234     0.18900
C3697       C  0.61732096  0.37866138  0.75886923    -0.06900
C3698       C  0.58790545  0.36751513  0.76127908    -0.18100
C3699       C  0.57344982  0.37981635  0.75171951     0.10300
C3700       C  0.58879628  0.40474200  0.73960980    -0.06900
C3701       C  0.61747085  0.41344822  0.73512713    -0.18100
C3702       C  0.63166279  0.40053139  0.74435190     0.10300
S3703       S  0.53581687  0.36462293  0.75694654    -0.33100
S3704       S  0.66802832  0.41317198  0.73693351    -0.33100
H3705       H  0.66542229  0.38591594  0.73708268     0.28300
H3706       H  0.53131805  0.33868237  0.76528577     0.28300
H3707       H  0.57627126  0.35001395  0.77173195     0.18900
H3708       H  0.62962864  0.43080353  0.72480523     0.18900
C3709       C  0.53137709  0.08560889  0.89256367    -0.06900
C3710       C  0.51768527  0.10175108  0.89333777    -0.18100
C3711       C  0.53073431  0.12884792  0.90206278     0.10300
C3712       C  0.55815169  0.14006427  0.91117462    -0.06900
C3713       C  0.57035950  0.12222294  0.91211460    -0.18100
C3714       C  0.55744700  0.09538936  0.90279058     0.10300
S3715       S  0.51297463  0.14956901  0.89889598    -0.33100
S3716       S  0.57475092  0.07406743  0.90362672    -0.33100
H3717       H  0.59925355  0.09358957  0.91422709     0.28300
H3718       H  0.48573347  0.12668154  0.89458791     0.28300
H3719       H  0.49774079  0.09422485  0.88532930     0.18900
H3720       H  0.59102199  0.12969205  0.91873991     0.18900
C3721       C  0.61013321  0.23590285  0.87881050    -0.06900
C3722       C  0.63870599  0.25754349  0.87824318    -0.18100
C3723       C  0.65010129  0.27528619  0.86120791     0.10300
C3724       C  0.63267554  0.27101956  0.84399788    -0.06900
C3725       C  0.60419387  0.24909142  0.84460091    -0.18100
C3726       C  0.59264585  0.23179647  0.86172972     0.10300
S3727       S  0.68651753  0.30351580  0.86293319    -0.33100
S3728       S  0.55503904  0.20601640  0.86183039    -0.33100
H3729       H  0.54965460  0.20852632  0.84125938     0.28300
H3730       H  0.68045960  0.32481968  0.85652532     0.28300
H3731       H  0.65228131  0.26073631  0.89122369     0.18900
H3732       H  0.59059471  0.24587022  0.83165994     0.18900
C3733       C  0.64914325  0.22648702  0.93859408    -0.06900
C3734       C  0.66770528  0.21597799  0.93426813    -0.18100
C3735       C  0.69287201  0.22484364  0.94517057     0.10300
C3736       C  0.69980211  0.24454667  0.96106348    -0.06900
C3737       C  0.68258124  0.25670077  0.96448154    -0.18100
C3738       C  0.65751048  0.24819449  0.95334098     0.10300
S3739       S  0.71485482  0.20971170  0.93833590    -0.33100
S3740       S  0.63595296  0.26397421  0.95953167    -0.33100
H3741       H  0.65536769  0.28518661  0.97263208     0.28300
H3742       H  0.74053359  0.23192327  0.94595194     0.28300
H3743       H  0.66224646  0.20018109  0.92250747     0.18900
H3744       H  0.68815199  0.27189280  0.97666584     0.18900
C3745       C  0.53573193  0.24855243  0.96670926    -0.06900
C3746       C  0.53370786  0.24882806  0.94545368    -0.18100
C3747       C  0.54906759  0.24035402  0.93298505     0.10300
C3748       C  0.56516221  0.22907601  0.94175016    -0.06900
C3749       C  0.56665614  0.22794791  0.96290968    -0.18100
C3750       C  0.55312640  0.23844005  0.97543320     0.10300
S3751       S  0.54544957  0.24219710  0.90598409    -0.33100
S3752       S  0.55797606  0.23675675  0.00241936    -0.33100
H3753       H  0.55188932  0.25817640  0.00795777     0.28300
H3754       H  0.57441027  0.25240357  0.90206704     0.28300
H3755       H  0.02160600  0.25700442  0.94156989     0.18900
H3756       H  0.57818871  0.21839079  0.96976128     0.18900
C3757       C  0.91479374  0.46168882  0.89464125    -0.06900
C3758       C  0.89683651  0.43237077  0.89233643    -0.18100
C3759       C  0.86949946  0.41846725  0.90075232     0.10300
C3760       C  0.85971892  0.43422598  0.91224783    -0.06900
C3761       C  0.87934700  0.46310289  0.91632990    -0.18100
C3762       C  0.90651594  0.47687053  0.90761168     0.10300
S3763       S  0.84668688  0.38126530  0.89448420    -0.33100
S3764       S  0.93030524  0.01718881  0.90964495    -0.33100
H3765       H  0.95615400  0.01703300  0.90803255     0.28300
H3766       H  0.86822337  0.37592073  0.88769495     0.28300
H3767       H  0.90330337  0.42075570  0.88235436     0.18900
H3768       H  0.87361942  0.47597297  0.92541635     0.18900
C3769       C  0.73269463  0.38029774  0.84430302    -0.06900
C3770       C  0.72637741  0.39337665  0.86033780    -0.18100
C3771       C  0.74174042  0.40040920  0.87859487     0.10300
C3772       C  0.76371883  0.39379335  0.88114089    -0.06900
C3773       C  0.76996035  0.38064454  0.86518248    -0.18100
C3774       C  0.75519897  0.37427997  0.84675613     0.10300
S3775       S  0.73421552  0.41947054  0.89777496    -0.33100
S3776       S  0.76661037  0.35991378  0.82640549    -0.33100
H3777       H  0.78857798  0.35857667  0.83692497     0.28300
H3778       H  0.70962077  0.41724913  0.88872537     0.28300
H3779       H  0.70928399  0.39816070  0.85856113     0.18900
H3780       H  0.78692285  0.37570010  0.86713391     0.18900
C3781       C  0.77056363  0.35255603  0.94199996    -0.06900
C3782       C  0.76891802  0.35371674  0.96309903    -0.18100
C3783       C  0.75793737  0.32906377  0.97500423     0.10300
C3784       C  0.75128618  0.30278780  0.96598404    -0.06900
C3785       C  0.75268968  0.30154383  0.94475248    -0.18100
C3786       C  0.76148595  0.32597357  0.93269658     0.10300
S3787       S  0.75291480  0.33266708  0.00159851    -0.33100
S3788       S  0.76253876  0.32241649  0.90566034    -0.33100
H3789       H  0.75287634  0.34167531  0.90135034     0.28300
H3790       H  0.73050929  0.30459819  0.00430365     0.28300
H3791       H  0.77672008  0.37410935  0.97044325     0.18900
H3792       H  0.74777630  0.28168269  0.93753609     0.18900
C3793       C  0.77552963  0.44188378  0.94165459    -0.06900
C3794       C  0.78669415  0.47095793  0.93697354    -0.18100
C3795       C  0.77780852  0.48785586  0.94715530     0.10300
C3796       C  0.75709045  0.47565989  0.96259399    -0.06900
C3797       C  0.74554599  0.44661188  0.96706036    -0.18100
C3798       C  0.75377217  0.42940972  0.95643111     0.10300
S3799       S  0.79549979  0.02566898  0.93999945    -0.33100
S3800       S  0.73736231  0.39223525  0.96312520    -0.33100
H3801       H  0.71754475  0.39162064  0.97715847     0.28300
H3802       H  0.77387006  0.03025635  0.94739340     0.28300
H3803       H  0.80296798  0.48083217  0.92543586     0.18900
H3804       H  0.73129858  0.43771976  0.97979780     0.18900
C3805       C  0.53950363  0.47275808  0.89082547    -0.06900
C3806       C  0.52393173  0.45176240  0.90539117    -0.18100
C3807       C  0.53623314  0.43819432  0.91634047     0.10300
C3808       C  0.56396839  0.44356004  0.91107632    -0.06900
C3809       C  0.58025289  0.46696243  0.89813572    -0.18100
C3810       C  0.56847857  0.48140932  0.88803511     0.10300
S3811       S  0.51676467  0.41821075  0.93828617    -0.33100
S3812       S  0.59062529  0.50817099  0.86982014    -0.33100
H3813       H  0.58834404  0.52992587  0.87973118     0.28300
H3814       H  0.54137165  0.42607136  0.94994668     0.28300
H3815       H  0.50216642  0.44633485  0.90854677     0.18900
H3816       H  0.60210628  0.47290403  0.89476669     0.18900
C3817       C  0.61454466  0.39487183  0.88321649    -0.06900
C3818       C  0.60864306  0.36654970  0.88243712    -0.18100
C3819       C  0.61545234  0.35595309  0.86528937     0.10300
C3820       C  0.62762437  0.37382265  0.84806886    -0.06900
C3821       C  0.63470417  0.40256146  0.84940398    -0.18100
C3822       C  0.62900112  0.41336248  0.86683797     0.10300
S3823       S  0.60880131  0.31984931  0.86683553    -0.33100
S3824       S  0.64162331  0.45117448  0.86743509    -0.33100
H3825       H  0.64625237  0.45399971  0.88850388     0.28300
H3826       H  0.63584709  0.32690215  0.85939595     0.28300
H3827       H  0.59829666  0.35241301  0.89517273     0.18900
H3828       H  0.64502107  0.41697637  0.83680278     0.18900
C3829       C  0.53472558  0.30497603  0.96584648    -0.06900
C3830       C  0.52572746  0.30527187  0.94588658    -0.18100
C3831       C  0.54003066  0.32934312  0.93342204     0.10300
C3832       C  0.56230320  0.35469010  0.94164309    -0.06900
C3833       C  0.56989413  0.35496436  0.96197276    -0.18100
C3834       C  0.55731059  0.33026850  0.97386425     0.10300
S3835       S  0.52749418  0.32660874  0.90769179    -0.33100
S3836       S  0.56941774  0.33307598  0.99967910    -0.33100
H3837       H  0.56278141  0.30457945  0.00148503     0.28300
H3838       H  0.55185481  0.34999178  0.89965338     0.28300
H3839       H  0.00395664  0.28676055  0.94334319     0.18900
H3840       H  0.58484872  0.37488449  0.96895420     0.18900
C3841       C  0.64861605  0.44268513  0.94255376    -0.06900
C3842       C  0.66607676  0.47196562  0.93842171    -0.18100
C3843       C  0.69171403  0.48859172  0.94866731     0.10300
C3844       C  0.70076860  0.47576495  0.96344983    -0.06900
C3845       C  0.68404369  0.44652170  0.96718145    -0.18100
C3846       C  0.65867999  0.42964178  0.95656520     0.10300
S3847       S  0.71215074  0.02517101  0.94284059    -0.33100
S3848       S  0.63984398  0.39198744  0.96192846    -0.33100
H3849       H  0.65606920  0.39209848  0.97866634     0.28300
H3850       H  0.73444764  0.03393314  0.95678307     0.28300
H3851       H  0.65945297  0.48231008  0.92726096     0.18900
H3852       H  0.69019115  0.43708019  0.97922977     0.18900
C3853       C  0.57809226  0.92457632  0.91623394     0.85700
C3854       C  0.56109873  0.89565297  0.92711939    -0.54600
C3855       C  0.57618459  0.88190078  0.93039379     0.08600
C3856       C  0.60679465  0.89767860  0.92201454     0.19600
C3857       C  0.60534230  0.94099896  0.92897275    -0.55300
C3858       C  0.62078643  0.92732726  0.93188699     0.08700
C3859       C  0.58784039  0.91652372  0.89672579    -0.54800
C3860       C  0.60339034  0.90327743  0.89960811     0.09300
H3861       H  0.53899644  0.88550343  0.93130885     0.13800
H3862       H  0.61864922  0.88600733  0.92385494    -0.00500
H3863       H  0.61214208  0.96220205  0.93473204     0.14100
H3864       H  0.58242697  0.92069435  0.88169059     0.13900
C3865       C  0.82986721  0.92330725  0.91514942     0.85700
C3866       C  0.81940582  0.94075247  0.92731109    -0.54600
C3867       C  0.79042310  0.92757549  0.92990642     0.08600
C3868       C  0.77458620  0.89767962  0.92014101     0.19600
C3869       C  0.81762186  0.89519316  0.92703092    -0.55300
C3870       C  0.78884125  0.88147502  0.92925997     0.08700
C3871       C  0.81279375  0.91631137  0.89543358    -0.54800
C3872       C  0.78407269  0.90288807  0.89778708     0.09300
H3873       H  0.83314251  0.96151987  0.93371082     0.13800
H3874       H  0.75116960  0.88615875  0.92186479    -0.00500
H3875       H  0.83063077  0.88681599  0.93326138     0.14100
H3876       H  0.82286770  0.92169668  0.88060317     0.13900
C3877       C  0.57700479  0.67188893  0.91594652     0.85700
C3878       C  0.60573680  0.68290100  0.92714661    -0.54600
C3879       C  0.62138537  0.71211507  0.92902329     0.08600
C3880       C  0.60641036  0.72744165  0.91946787     0.19600
C3881       C  0.56216103  0.68465792  0.92841080    -0.55300
C3882       C  0.57703841  0.71358177  0.92989391     0.08700
C3883       C  0.58533641  0.68809979  0.89582709    -0.54800
C3884       C  0.60023165  0.71687222  0.89741602     0.09300
H3885       H  0.61299277  0.66921857  0.93373727     0.13800
H3886       H  0.61843020  0.75098434  0.92033363    -0.00500
H3887       H  0.54179251  0.67186943  0.93587074     0.14100
H3888       H  0.58052435  0.67733174  0.88129181     0.13900
O3889       O  0.65866888  0.87988945  0.77484818    -0.82600
C3890       C  0.64186441  0.78847100  0.82582069     0.96700
O3891       O  0.62309901  0.79015855  0.81554398    -0.71700
O3892       O  0.62323916  0.83653691  0.82474501    -0.75300
Al3893     Al  0.62416772  0.81998794  0.79966683     1.49000
C3894       C  0.63440258  0.86267033  0.82855109     0.92000
O3895       O  0.69880831  0.88101425  0.82212958    -0.81500
O3896       O  0.70295437  0.84418762  0.77249898    -0.75100
Al3897     Al  0.67815191  0.87859244  0.79844796     1.90100
O3898       O  0.71287115  0.85076479  0.81377378    -0.74200
O3899       O  0.65703921  0.79325239  0.77948105    -0.74000
O3900       O  0.66755032  0.80263430  0.82070545    -0.79700
O3901       O  0.62084219  0.80054786  0.77526382    -0.77900
O3902       O  0.66187071  0.84077189  0.79796088    -1.14000
O3903       O  0.61677742  0.84548954  0.78405379    -0.73200
C3904       C  0.63197783  0.86681446  0.77290028     0.97500
C3905       C  0.71408496  0.86981469  0.82542550     0.93900
Al3906     Al  0.68319888  0.82401249  0.79656089     1.55600
O3907       O  0.65134567  0.88072347  0.81599137    -0.77800
C3908       C  0.63373547  0.78721009  0.77090737     0.98100
C3909       C  0.71660430  0.87106484  0.77120023     0.93000
O3910       O  0.70904722  0.88557798  0.78159325    -0.83100
C3911       C  0.72471212  0.99064869  0.97758640     0.01500
C3912       C  0.75174804  0.99264440  0.97619477     0.01400
C3913       C  0.77265894  0.51089277  0.99024503    -0.19100
C3914       C  0.76851164  0.52764927  0.00447562     0.01500
C3915       C  0.74191298  0.52643028  0.00565634     0.01400
C3916       C  0.72034738  0.50910178  0.99207711    -0.19100
H3917       H  0.70001793  0.50848442  0.99275678     0.03500
H3918       H  0.79293676  0.51137802  0.98978919     0.03500
C3919       C  0.66164422  0.59214215  0.06732201     0.85700
C3920       C  0.67258276  0.62006907  0.05533355    -0.54600
C3921       C  0.70133423  0.63482688  0.05287174     0.08600
C3922       C  0.71683738  0.61972464  0.06171487     0.19600
C3923       C  0.67297193  0.57556715  0.05497872    -0.55300
C3924       C  0.70197692  0.58978515  0.05214525     0.08700
C3925       C  0.67924627  0.60004274  0.08688355    -0.54800
C3926       C  0.70784665  0.61420822  0.08400286     0.09300
H3927       H  0.65876878  0.62756254  0.04922997     0.13800
H3928       H  0.74025254  0.63180851  0.06003283    -0.00500
H3929       H  0.65980579  0.55456519  0.04875585     0.14100
H3930       H  0.66976354  0.59498110  0.10191074     0.13900
C3931       C  0.91382712  0.84535129  0.06492759     0.85700
C3932       C  0.93167855  0.83431396  0.05413434    -0.54600
C3933       C  0.91782468  0.80547436  0.05146144     0.08600
C3934       C  0.88737567  0.78981518  0.06025899     0.19600
C3935       C  0.88615041  0.83319112  0.05245517    -0.55300
C3936       C  0.87173075  0.80404414  0.05015736     0.08700
C3937       C  0.90517584  0.82806590  0.08478034    -0.54800
C3938       C  0.89090078  0.79934241  0.08248153     0.09300
H3939       H  0.95356997  0.84694790  0.04960462     0.13800
H3940       H  0.87660581  0.76636746  0.05905372    -0.00500
H3941       H  0.87823579  0.84675132  0.04651818     0.14100
H3942       H  0.91003695  0.83791509  0.09965459     0.13900
C3943       C  0.91262201  0.59063758  0.06769860     0.85700
C3944       C  0.88379708  0.57242081  0.05688988    -0.54600
C3945       C  0.86884405  0.58643129  0.05346690     0.08600
C3946       C  0.88444859  0.61769539  0.06051912     0.19600
C3947       C  0.92827055  0.61679582  0.05381171    -0.55300
C3948       C  0.91382990  0.63110129  0.05019679     0.08700
C3949       C  0.90461839  0.60129083  0.08668548    -0.54800
C3950       C  0.89022858  0.61560207  0.08316479     0.09300
H3951       H  0.87556012  0.55069431  0.05195638     0.13800
H3952       H  0.87293022  0.62956212  0.05748146    -0.00500
H3953       H  0.94939107  0.62390663  0.04775114     0.14100
H3954       H  0.90979367  0.59749181  0.10191466     0.13900
O3955       O  0.86987899  0.67752216  0.20895514    -0.82600
C3956       C  0.78025101  0.65488721  0.15449121     0.96700
O3957       O  0.78143641  0.63684332  0.16609370    -0.71700
O3958       O  0.82954117  0.63918811  0.15894987    -0.75300
Al3959     Al  0.81170064  0.64022801  0.18308278     1.49000
C3960       C  0.85584018  0.65082754  0.15559656     0.92000
O3961       O  0.87211956  0.71576823  0.15991896    -0.81500
O3962       O  0.82941705  0.71712467  0.20711269    -0.75100
Al3963     Al  0.86907948  0.69611455  0.18448264     1.90100
O3964       O  0.83989553  0.72789860  0.16612140    -0.74200
O3965       O  0.78128847  0.67108357  0.19941825    -0.74000
O3966       O  0.79443131  0.68086290  0.15855901    -0.79700
O3967       O  0.79158354  0.63758105  0.20700729    -0.77900
O3968       O  0.83118924  0.67804216  0.18374255    -1.14000
O3969       O  0.83743490  0.63481888  0.19973455    -0.73200
C3970       C  0.85767641  0.65083227  0.21131887     0.97500
C3971       C  0.85935625  0.72903262  0.15491959     0.93900
Al3972     Al  0.81275582  0.69758904  0.18298331     1.55600
O3973       O  0.87322355  0.66919392  0.16779843    -0.77800
C3974       C  0.77689171  0.64948597  0.20979034     0.98100
C3975       C  0.85566493  0.73227645  0.21019741     0.93000
O3976       O  0.87331358  0.72750711  0.20091863    -0.83100
C3977       C  0.51803850  0.75479288  0.97994522     0.01500
C3978       C  0.51787562  0.78096015  0.97951965     0.01400
C3979       C  0.99744250  0.78408053  0.99258366    -0.19100
C3980       C  0.97895823  0.76241852  0.00577679     0.01500
C3981       C  0.97885928  0.73619004  0.00603845     0.01400
C3982       C  0.99718306  0.73246735  0.99295446    -0.19100
H3983       H  0.99681176  0.71220077  0.99296673     0.03500
H3984       H  0.99739505  0.80414737  0.99233804     0.03500
C3985       C  0.72518952  0.75260145  0.97525846     0.01500
C3986       C  0.74911760  0.78001829  0.97747775     0.01400
C3987       C  0.76990312  0.78423958  0.99200531    -0.19100
C3988       C  0.76690058  0.76224280  0.00500560     0.01500
C3989       C  0.74282452  0.73492509  0.00288931     0.01400
C3990       C  0.72222132  0.73059032  0.98819981    -0.19100
H3991       H  0.70332683  0.70980107  0.98700659     0.03500
H3992       H  0.78879766  0.80502459  0.99319084     0.03500
C3993       C  0.99863804  0.76229467  0.40283507     0.85700
C3994       C  0.50833630  0.78854955  0.39085897    -0.54600
C3995       C  0.53681943  0.80168038  0.38707307     0.08600
C3996       C  0.55116750  0.78461379  0.39426420     0.19600
C3997       C  0.50530828  0.74245945  0.38788799    -0.55300
C3998       C  0.53407364  0.75527934  0.38413242     0.08700
C3999       C  0.51526280  0.76573774  0.42067031    -0.54800
C4000       C  0.54367165  0.77848563  0.41692413     0.09300
H4001       H  0.99840791  0.80101651  0.38790404     0.13800
H4002       H  0.57436311  0.79540046  0.39115851    -0.00500
H4003       H  0.99183521  0.72461241  0.38178101     0.14100
H4004       H  0.50662673  0.76102389  0.43594239     0.13900
C4005       C  0.74308502  0.75698130  0.39807266     0.85700
C4006       C  0.71594908  0.74324778  0.38497506    -0.54600
C4007       C  0.70177868  0.75838319  0.38400205     0.08600
C4008       C  0.71686011  0.78680899  0.39577046     0.19600
C4009       C  0.76087616  0.78678917  0.38825183    -0.55300
C4010       C  0.74736345  0.80256122  0.38697705     0.08700
C4011       C  0.73409474  0.76310285  0.41852050    -0.54800
C4012       C  0.72030922  0.77821100  0.41749682     0.09300
H4013       H  0.70895351  0.72360591  0.37665016     0.13800
H4014       H  0.70586422  0.79949871  0.39526468    -0.00500
H4015       H  0.78187769  0.79488663  0.38190573     0.14100
H4016       H  0.73875549  0.75636992  0.43292176     0.13900
C4017       C  0.74538886  0.51201854  0.39940847     0.85700
C4018       C  0.76324053  0.50123733  0.38811359    -0.54600
C4019       C  0.74790249  0.97274852  0.38454373     0.08600
C4020       C  0.71821303  0.95710794  0.39442149     0.19600
C4021       C  0.71846719  0.50102596  0.38616518    -0.55300
C4022       C  0.70214419  0.97189046  0.38616854     0.08700
C4023       C  0.73778538  0.99482426  0.41937114    -0.54800
C4024       C  0.72364394  0.96598380  0.41685386     0.09300
H4025       H  0.78453484  0.51463845  0.38231943     0.13800
H4026       H  0.70652050  0.93376368  0.39197156    -0.00500
H4027       H  0.71122892  0.51477064  0.37954001     0.14100
H4028       H  0.74342538  0.00457784  0.43426235     0.13900
O4029       O  0.66137956  0.88198456  0.54112449    -0.82600
C4030       C  0.69225996  0.81676113  0.49088972     0.96700
O4031       O  0.70933848  0.83781775  0.50133249    -0.71700
O4032       O  0.70480067  0.88254651  0.49356929    -0.75300
Al4033     Al  0.70341069  0.86345473  0.51803370     1.49000
C4034       C  0.69230600  0.89635930  0.48958861     0.92000
O4035       O  0.62914571  0.84517364  0.49152560    -0.81500
O4036       O  0.62474909  0.80315500  0.54138950    -0.75100
Al4037     Al  0.64577487  0.86229191  0.51651681     1.90100
O4038       O  0.61786228  0.80142536  0.49948685    -0.74200
O4039       O  0.67275832  0.80239773  0.53663718    -0.74000
O4040       O  0.66622370  0.80354067  0.49527187    -0.79700
O4041       O  0.70670191  0.84624183  0.54220779    -0.77900
O4042       O  0.66548298  0.84378796  0.51789050    -1.14000
O4043       O  0.70573251  0.89361653  0.53457657    -0.73200
C4044       C  0.68776402  0.89739634  0.54433585     0.97500
C4045       C  0.61667174  0.81905816  0.48732984     0.93900
Al4046     Al  0.64702560  0.80584661  0.51829766     1.55600
O4047       O  0.67250528  0.89393795  0.50081807    -0.77800
C4048       C  0.69477090  0.81996584  0.54616005     0.98100
C4049       C  0.60855045  0.81363746  0.54246803     0.93000
O4050       O  0.61358383  0.83493977  0.53160101    -0.83100
C4051       C  0.66576538  0.59404982  0.24706655     0.85700
C4052       C  0.65478505  0.61127962  0.25882592    -0.54600
C4053       C  0.62598277  0.59710042  0.26172937     0.08600
C4054       C  0.61047283  0.56700336  0.25224131     0.19600
C4055       C  0.65428234  0.56648330  0.25955860    -0.55300
C4056       C  0.62521125  0.55131417  0.26175282     0.08700
C4057       C  0.64852897  0.58567109  0.22739626    -0.54800
C4058       C  0.61992034  0.57193827  0.22990883     0.09300
H4059       H  0.66793550  0.63238147  0.26496535     0.13800
H4060       H  0.58704065  0.55593028  0.25371989    -0.00500
H4061       H  0.66831771  0.55945730  0.26593394     0.14100
H4062       H  0.65833477  0.59022115  0.21247588     0.13900
C4063       C  0.90944231  0.84077150  0.25099802     0.85700
C4064       C  0.93726637  0.85097426  0.26303330    -0.54600
C4065       C  0.95158665  0.87960986  0.26677023     0.08600
C4066       C  0.93756191  0.89590901  0.25747704     0.19600
C4067       C  0.89268485  0.85204749  0.26280357    -0.55300
C4068       C  0.90688733  0.88090916  0.26579587     0.08700
C4069       C  0.91974954  0.85929770  0.23173679    -0.54800
C4070       C  0.93411346  0.88785412  0.23493018     0.09300
H4071       H  0.94637593  0.83785523  0.26725419     0.13800
H4072       H  0.94974853  0.91923414  0.26010879    -0.00500
H4073       H  0.87116426  0.83817138  0.26817028     0.14100
H4074       H  0.91610113  0.85044094  0.21655321     0.13900
C4075       C  0.90997541  0.59252108  0.25038719     0.85700
C4076       C  0.89520644  0.56515862  0.26330610    -0.54600
C4077       C  0.90996754  0.55075217  0.26479528     0.08600
C4078       C  0.93893845  0.56557219  0.25384516     0.19600
C4079       C  0.93900488  0.60975773  0.26097286    -0.55300
C4080       C  0.95466300  0.59614834  0.26255796     0.08700
C4081       C  0.91732120  0.58384226  0.23018198    -0.54800
C4082       C  0.93168463  0.56918765  0.23178456     0.09300
H4083       H  0.87505487  0.55800805  0.27098591     0.13800
H4084       H  0.95076148  0.55374861  0.25499636    -0.00500
H4085       H  0.94680941  0.63070350  0.26730966     0.14100
H4086       H  0.91189523  0.58945041  0.21565516     0.13900
O4087       O  0.99553031  0.54838497  0.11040364    -0.82600
C4088       C  0.96967535  0.95466330  0.16173001     0.96700
O4089       O  0.95187555  0.95891912  0.15230925    -0.71700
O4090       O  0.95474996  0.50545433  0.15740139    -0.75300
Al4091     Al  0.95577975  0.98857029  0.13477479     1.49000
C4092       C  0.96845844  0.53117763  0.16226775     0.92000
O4093       O  0.53466530  0.54620675  0.15516014    -0.81500
O4094       O  0.53571025  0.50758316  0.10680815    -0.75100
Al4095     Al  0.51399785  0.54525983  0.13215253     1.90100
O4096       O  0.54349009  0.51161072  0.14875559    -0.74200
O4097       O  0.98661262  0.95840373  0.11511331    -0.74000
O4098       O  0.99512457  0.96612523  0.15610681    -0.79700
O4099       O  0.95135153  0.96701365  0.11116144    -0.77900
O4100       O  0.99437443  0.50585161  0.13256744    -1.14000
O4101       O  0.95207749  0.51404532  0.11636676    -0.73200
C4102       C  0.96924887  0.53627079  0.10681703     0.97500
C4103       C  0.54709368  0.53247300  0.15944381     0.93900
Al4104     Al  0.51278843  0.98653150  0.13189796     1.55600
O4105       O  0.98931602  0.54871531  0.15187988    -0.77800
C4106       C  0.96345000  0.95296939  0.10676144     0.98100
C4107       C  0.54944123  0.53419572  0.10425806     0.93000
O4108       O  0.54335155  0.54992715  0.11460328    -0.83100
C4109       C  0.57892572  0.70289894  0.32939562     0.01500
C4110       C  0.60588978  0.70433961  0.32919507     0.01400
C4111       C  0.60948600  0.68551417  0.31643118    -0.19100
C4112       C  0.58810488  0.66657128  0.30314907     0.01500
C4113       C  0.56209201  0.66688165  0.30239295     0.01400
C4114       C  0.55782647  0.68459819  0.31577590    -0.19100
H4115       H  0.53735171  0.68372754  0.31585132     0.03500
H4116       H  0.62929094  0.68509207  0.31718453     0.03500
C4117       C  0.81229331  0.93253289  0.34051692     0.01500
C4118       C  0.81314155  0.90689171  0.34150697     0.01400
C4119       C  0.83170252  0.90337541  0.32855214    -0.19100
C4120       C  0.85038440  0.92531183  0.31544093     0.01500
C4121       C  0.85131099  0.95198453  0.31585753     0.01400
C4122       C  0.83156469  0.95481187  0.32800245    -0.19100
H4123       H  0.83119529  0.97470641  0.32775457     0.03500
H4124       H  0.83153654  0.88321809  0.32861586     0.03500
C4125       C  0.60187961  0.92681305  0.33603418     0.01500
C4126       C  0.57651160  0.90027955  0.33536188     0.01400
C4127       C  0.55493869  0.89664041  0.32176053    -0.19100
C4128       C  0.55830509  0.91839851  0.30831307     0.01500
C4129       C  0.58445158  0.94432918  0.30810156     0.01400
C4130       C  0.60558797  0.94832325  0.32229205    -0.19100
H4131       H  0.62525176  0.96854300  0.32266379     0.03500
H4132       H  0.53501580  0.87664837  0.32184660     0.03500
C4133       C  0.82824923  0.92491086  0.73338118     0.85700
C4134       C  0.83982838  0.95317540  0.72167029    -0.54600
C4135       C  0.86859006  0.96736363  0.71892890     0.08600
C4136       C  0.88364724  0.95202639  0.72810001     0.19600
C4137       C  0.83940723  0.90778690  0.72171888    -0.55300
C4138       C  0.86828596  0.92191224  0.71887898     0.08700
C4139       C  0.84580131  0.93272125  0.75309852    -0.54800
C4140       C  0.87455096  0.94709390  0.75057659     0.09300
H4141       H  0.82633842  0.96135812  0.71606543     0.13800
H4142       H  0.90703401  0.96375928  0.72576737    -0.00500
H4143       H  0.82659985  0.88607790  0.71681528     0.14100
H4144       H  0.83612437  0.92739161  0.76806150     0.13900
C4145       C  0.57715141  0.67505489  0.73431737     0.85700
C4146       C  0.59526620  0.66405116  0.72382428    -0.54600
C4147       C  0.58108493  0.63543348  0.72043035     0.08600
C4148       C  0.54981328  0.62007809  0.72763903     0.19600
C4149       C  0.55105583  0.66482257  0.72041106    -0.55300
C4150       C  0.53618158  0.63598752  0.71725346     0.08700
C4151       C  0.56615583  0.65649397  0.75347531    -0.54800
C4152       C  0.55157797  0.62777348  0.75023635     0.09300
H4153       H  0.61709664  0.67690997  0.71900525     0.13800
H4154       H  0.53787670  0.59698858  0.72479795    -0.00500
H4155       H  0.54427625  0.67918356  0.71422326     0.14100
H4156       H  0.57003477  0.66564954  0.76855610     0.13900
C4157       C  0.57625950  0.92272848  0.73422529     0.85700
C4158       C  0.54849004  0.90688351  0.72213090    -0.54600
C4159       C  0.53472767  0.92202322  0.71920244     0.08600
C4160       C  0.55039121  0.95232693  0.72810690     0.19600
C4161       C  0.59384818  0.95049892  0.72185631    -0.55300
C4162       C  0.58044834  0.96619200  0.71864387     0.08700
C4163       C  0.56863210  0.93290066  0.75357327    -0.54800
C4164       C  0.55498815  0.94792595  0.75053158     0.09300
H4165       H  0.54048942  0.88555078  0.71618542     0.13800
H4166       H  0.53903590  0.96452865  0.72610853    -0.00500
H4167       H  0.61500977  0.95772673  0.71604899     0.14100
H4168       H  0.57334050  0.92820794  0.76869269     0.13900
O4169       O  0.53579719  0.50966775  0.87399379    -0.82600
C4170       C  0.94279130  0.98342860  0.82343681     0.96700
O4171       O  0.94541272  0.96565895  0.83445335    -0.71700
O4172       O  0.99324200  0.96854736  0.82699887    -0.75300
Al4173     Al  0.97632810  0.97010945  0.85132752     1.49000
C4174       C  0.51862424  0.98094257  0.82215611     0.92000
O4175       O  0.52957313  0.54456163  0.82617829    -0.81500
O4176       O  0.99195152  0.54445758  0.87795568    -0.75100
Al4177     Al  0.53064711  0.52643539  0.85032455     1.90100
O4178       O  0.49850782  0.55680548  0.83551225    -0.74200
O4179       O  0.94322442  0.49776641  0.87095956    -0.74000
O4180       O  0.95335793  0.50776209  0.82997155    -0.79700
O4181       O  0.95653425  0.96709128  0.87557260    -0.77900
O4182       O  0.99243971  0.50563034  0.85313528    -1.14000
O4183       O  0.50366295  0.96579723  0.86735000    -0.73200
C4184       C  0.52600283  0.98321574  0.87664714     0.97500
C4185       C  0.51662358  0.55813835  0.82294012     0.93900
Al4186     Al  0.97340192  0.52477960  0.85397470     1.55600
O4187       O  0.53470993  0.50048166  0.83308501    -0.77800
C4188       C  0.94129730  0.97832267  0.87862218     0.98100
C4189       C  0.51887853  0.56105819  0.87850206     0.93000
O4190       O  0.53540434  0.55732451  0.86704723    -0.83100
C4191       C  0.74511185  0.51160900  0.58118247     0.85700
C4192       C  0.77267158  0.52117225  0.59368538    -0.54600
C4193       C  0.78802290  0.54992783  0.59746633     0.08600
C4194       C  0.77396039  0.56642887  0.58850664     0.19600
C4195       C  0.72866931  0.52264781  0.59354193    -0.55300
C4196       C  0.74327238  0.55119342  0.59710695     0.08700
C4197       C  0.75549879  0.53052108  0.56223691    -0.54800
C4198       C  0.77063861  0.55908344  0.56576848     0.09300
H4199       H  0.77993350  0.50705828  0.59930229     0.13800
H4200       H  0.78620032  0.58955539  0.59126298    -0.00500
H4201       H  0.70717344  0.50899172  0.59906609     0.14100
H4202       H  0.75132493  0.52173792  0.54702905     0.13900
C4203       C  0.99593617  0.75835507  0.58165542     0.85700
C4204       C  0.98589743  0.77426053  0.59558593    -0.54600
C4205       C  0.95723631  0.76051656  0.59890675     0.08600
C4206       C  0.94093565  0.73098340  0.58854109     0.19600
C4207       C  0.98490125  0.72942132  0.59265971    -0.55300
C4208       C  0.95610352  0.71457775  0.59579980     0.08700
C4209       C  0.97753220  0.75142902  0.56260524    -0.54800
C4210       C  0.94899362  0.73683905  0.56591792     0.09300
H4211       H  0.50088148  0.79572469  0.60208486     0.13800
H4212       H  0.91762905  0.71960423  0.59126253    -0.00500
H4213       H  0.49937390  0.72231649  0.59878502     0.14100
H4214       H  0.98654251  0.75721347  0.54746037     0.13900
C4215       C  0.74769107  0.76151673  0.58424238     0.85700
C4216       C  0.72987131  0.73369891  0.59655141    -0.54600
C4217       C  0.74289712  0.71752245  0.59929238     0.08600
C4218       C  0.77256061  0.73077908  0.58931010     0.19600
C4219       C  0.77577246  0.77661033  0.59603131    -0.55300
C4220       C  0.78899576  0.76089510  0.59840246     0.08700
C4221       C  0.75435722  0.75116960  0.56458824    -0.54800
C4222       C  0.76733466  0.73538118  0.56699904     0.09300
H4223       H  0.70903567  0.72700454  0.60281366     0.13800
H4224       H  0.78370605  0.71835338  0.59101500    -0.00500
H4225       H  0.78452688  0.79801101  0.60203643     0.14100
H4226       H  0.74935025  0.75622447  0.54968254     0.13900
O4227       O  0.87044968  0.68201235  0.44002164    -0.82600
C4228       C  0.79826633  0.70064099  0.49280565     0.96700
O4229       O  0.81667079  0.71853272  0.48092100    -0.71700
O4230       O  0.86352868  0.71867339  0.48970303    -0.75300
Al4231     Al  0.84489272  0.71637527  0.46485699     1.49000
C4232       C  0.87836864  0.70728005  0.49390967     0.92000
O4233       O  0.83444814  0.64148714  0.48815182    -0.81500
O4234       O  0.78882581  0.63676542  0.44169443    -0.75100
Al4235     Al  0.85049439  0.66226796  0.46414665     1.90100
O4236       O  0.78965539  0.62863530  0.48291836    -0.74200
O4237       O  0.78445308  0.68223970  0.44808252    -0.74000
O4238       O  0.78803671  0.67452889  0.48941869    -0.79700
O4239       O  0.82685732  0.71724412  0.44026221    -0.77900
O4240       O  0.82870233  0.67850717  0.46453925    -1.14000
O4241       O  0.87772405  0.72384120  0.44926022    -0.73200
C4242       C  0.88464874  0.70885103  0.43863161     0.97500
C4243       C  0.80875213  0.62752473  0.49320118     0.93900
Al4244     Al  0.79092904  0.65735817  0.46533314     1.55600
O4245       O  0.87938357  0.68978948  0.48167166    -0.77800
C4246       C  0.80029481  0.70381036  0.43726327     0.98100
C4247       C  0.80219359  0.62365157  0.43819144     0.93000
O4248       O  0.82531528  0.63061988  0.44732977    -0.83100
C4249       C  0.93765841  0.86683112  0.66677646     0.01500
C4250       C  0.91066883  0.86489837  0.66789657     0.01400
C4251       C  0.88840906  0.84495492  0.65582871    -0.19100
C4252       C  0.89192367  0.82608062  0.64316886     0.01500
C4253       C  0.91911194  0.82854649  0.64162143     0.01400
C4254       C  0.94141425  0.84860692  0.65359135    -0.19100
H4255       H  0.96181905  0.84938979  0.65308100     0.03500
H4256       H  0.86777674  0.84363058  0.65671527     0.03500
C4257       C  0.64771631  0.57255085  0.67554301     0.01500
C4258       C  0.64449735  0.59678555  0.67329183     0.01400
C4259       C  0.66093864  0.61751554  0.65878882    -0.19100
C4260       C  0.67976979  0.61423534  0.64601940     0.01500
C4261       C  0.68313470  0.59004693  0.64826532     0.01400
C4262       C  0.66680003  0.56939292  0.66290495    -0.19100
H4263       H  0.66843579  0.55022357  0.66415504     0.03500
H4264       H  0.65902455  0.63652309  0.65739068     0.03500
C4265       C  0.90881905  0.56880406  0.67157059     0.01500
C4266       C  0.93276901  0.59617418  0.67387760     0.01400
C4267       C  0.93570383  0.61851229  0.66124702    -0.19100
C4268       C  0.91515804  0.61431088  0.64657924     0.01500
C4269       C  0.89106046  0.58697335  0.64436930     0.01400
C4270       C  0.88809290  0.56466801  0.65704165    -0.19100
H4271       H  0.86933339  0.54382766  0.65563855     0.03500
H4272       H  0.95459796  0.63928821  0.66249614     0.03500
C4273       C  0.77647464  0.72575578  0.54900210    -0.06900
C4274       C  0.79377775  0.74651781  0.53479850    -0.18100
C4275       C  0.79999603  0.73917893  0.51601663     0.10300
C4276       C  0.78950513  0.71007372  0.51128675    -0.06900
C4277       C  0.77172053  0.68926763  0.52550990    -0.18100
C4278       C  0.76495787  0.69679971  0.54411218     0.10300
S4279       S  0.82054488  0.76825393  0.49881268    -0.33100
S4280       S  0.73929243  0.66878063  0.56005533    -0.33100
H4281       H  0.75876063  0.67452545  0.57589948     0.28300
H4282       H  0.80162248  0.75550443  0.48251483     0.28300
H4283       H  0.80170368  0.76882998  0.53811170     0.18900
H4284       H  0.76285952  0.66684856  0.52217528     0.18900
C4285       C  0.86660644  0.80432382  0.63200745    -0.06900
C4286       C  0.86711136  0.80439758  0.61074714    -0.18100
C4287       C  0.84242309  0.78789925  0.59951978     0.10300
C4288       C  0.81616423  0.77238368  0.60954600    -0.06900
C4289       C  0.81556254  0.77187903  0.63078560    -0.18100
C4290       C  0.84061008  0.78648385  0.64208188     0.10300
S4291       S  0.84527104  0.78906851  0.57237848    -0.33100
S4292       S  0.83787090  0.78208565  0.66928082    -0.33100
H4293       H  0.86601695  0.78796480  0.67231034     0.28300
H4294       H  0.82886722  0.75931881  0.57064188     0.28300
H4295       H  0.88637563  0.81826356  0.60274708     0.18900
H4296       H  0.79539278  0.76046637  0.63862851     0.18900
C4297       C  0.69661959  0.63744339  0.63140450    -0.06900
C4298       C  0.72575311  0.65471574  0.63498586    -0.18100
C4299       C  0.74186574  0.68035082  0.62431338     0.10300
C4300       C  0.72834251  0.68919843  0.60981192    -0.06900
C4301       C  0.69944168  0.67078657  0.60546143    -0.18100
C4302       C  0.68357743  0.64506878  0.61590593     0.10300
S4303       S  0.77882989  0.70202772  0.63091579    -0.33100
S4304       S  0.64666475  0.62329126  0.60896400    -0.33100
H4305       H  0.64292139  0.59743518  0.61684440     0.28300
H4306       H  0.78130639  0.68157069  0.64270873     0.28300
H4307       H  0.73551938  0.64877032  0.64700979     0.18900
H4308       H  0.68897512  0.67659114  0.59385294     0.18900
C4309       C  0.89494634  0.71418358  0.51315463    -0.06900
C4310       C  0.91601102  0.70633073  0.51479967    -0.18100
C4311       C  0.93222891  0.71159055  0.53234361     0.10300
C4312       C  0.92866373  0.72640085  0.54866235    -0.06900
C4313       C  0.90708376  0.73351443  0.54750505    -0.18100
C4314       C  0.88979558  0.72702475  0.53020042     0.10300
S4315       S  0.95630158  0.69764042  0.53327785    -0.33100
S4316       S  0.86100676  0.73464585  0.53139199    -0.33100
H4317       H  0.84065638  0.70728319  0.52478643     0.28300
H4318       H  0.95085073  0.69042771  0.55383941     0.28300
H4319       H  0.91976830  0.69556600  0.50238215     0.18900
H4320       H  0.90382061  0.74439608  0.56008914     0.18900
C4321       C  0.94390986  0.77525726  0.60940300    -0.06900
C4322       C  0.94453211  0.79864015  0.59947479    -0.18100
C4323       C  0.93652845  0.81647376  0.60938852     0.10300
C4324       C  0.92491364  0.80922869  0.62917262    -0.06900
C4325       C  0.92359445  0.78545532  0.63889640    -0.18100
C4326       C  0.93439220  0.76946699  0.62971850     0.10300
S4327       S  0.94399191  0.84900675  0.59630573    -0.33100
S4328       S  0.93897675  0.74507908  0.64587407    -0.33100
H4329       H  0.96255398  0.74683087  0.63568844     0.28300
H4330       H  0.93607085  0.86172957  0.61151893     0.28300
H4331       H  0.95313828  0.80413686  0.58424702     0.18900
H4332       H  0.91642007  0.78089084  0.65450538     0.18900
C4333       C  0.92153475  0.63802216  0.63228713    -0.06900
C4334       C  0.93825358  0.64072812  0.61535784    -0.18100
C4335       C  0.94907738  0.66481393  0.60269512     0.10300
C4336       C  0.94182397  0.68628287  0.60643131    -0.06900
C4337       C  0.92259638  0.68185808  0.62211172    -0.18100
C4338       C  0.91398799  0.65920542  0.63590130     0.10300
S4339       S  0.97160465  0.66720020  0.58172962    -0.33100
S4340       S  0.89564255  0.66044460  0.65839467    -0.33100
H4341       H  0.89666185  0.63884651  0.66964221     0.28300
H4342       H  0.97427352  0.64330004  0.58678583     0.28300
H4343       H  0.94385709  0.62437077  0.61263114     0.18900
H4344       H  0.91561927  0.69714087  0.62446394     0.18900
C4345       C  0.80091343  0.61074727  0.51195799    -0.06900
C4346       C  0.79050284  0.61984833  0.52798632    -0.18100
C4347       C  0.78244172  0.60491599  0.54644430     0.10300
C4348       C  0.78390446  0.57958397  0.54860000    -0.06900
C4349       C  0.79624535  0.57179391  0.53285571    -0.18100
C4350       C  0.80462285  0.58696425  0.51460682     0.10300
S4351       S  0.76963778  0.61838312  0.56635420    -0.33100
S4352       S  0.81892515  0.57430549  0.49513434    -0.33100
H4353       H  0.80941417  0.58367657  0.47847167     0.28300
H4354       H  0.78088213  0.64611952  0.55842413     0.28300
H4355       H  0.78861844  0.63875578  0.52593800     0.18900
H4356       H  0.79861451  0.55310360  0.53453698     0.18900
C4357       C  0.81652822  0.56318742  0.60782412    -0.06900
C4358       C  0.83487084  0.55235826  0.60337669    -0.18100
C4359       C  0.86034149  0.56120420  0.61400526     0.10300
C4360       C  0.86784807  0.58114869  0.62978272    -0.06900
C4361       C  0.85046018  0.59294385  0.63363125    -0.18100
C4362       C  0.82549018  0.58499997  0.62257421     0.10300
S4363       S  0.88178626  0.54546032  0.60722102    -0.33100
S4364       S  0.80512815  0.60196407  0.62905521    -0.33100
H4365       H  0.82643416  0.62475432  0.64013536     0.28300
H4366       H  0.90778541  0.56794784  0.61417416     0.28300
H4367       H  0.82921362  0.53657090  0.59160199     0.18900
H4368       H  0.85551148  0.60715963  0.64626734     0.18900
C4369       C  0.73039444  0.56497178  0.60916042    -0.06900
C4370       C  0.73575239  0.56786190  0.63005124    -0.18100
C4371       C  0.72267193  0.57854232  0.64279441     0.10300
C4372       C  0.70196973  0.58462047  0.63483508    -0.06900
C4373       C  0.69637585  0.58154547  0.61393146    -0.18100
C4374       C  0.71020705  0.57176618  0.60101670     0.10300
S4375       S  0.73311650  0.58361481  0.66911282    -0.33100
S4376       S  0.69900941  0.56642343  0.57480737    -0.33100
H4377       H  0.71915845  0.55996895  0.56699816     0.28300
H4378       H  0.72703044  0.60571370  0.67256237     0.28300
H4379       H  0.74972022  0.56099061  0.63663980     0.18900
H4380       H  0.68008012  0.58548819  0.60773251     0.18900
C4381       C  0.54462189  0.95717960  0.76792320    -0.06900
C4382       C  0.52537288  0.93608834  0.78117757    -0.18100
C4383       C  0.51695453  0.94320460  0.79913365     0.10300
C4384       C  0.52788373  0.97216795  0.80401333    -0.06900
C4385       C  0.54711072  0.99333049  0.79074146    -0.18100
C4386       C  0.55572012  0.98611586  0.77282275     0.10300
S4387       S  0.98967971  0.91423696  0.81388191    -0.33100
S4388       S  0.57967677  0.51406768  0.75819143    -0.33100
H4389       H  0.59685732  0.50146711  0.75601263     0.28300
H4390       H  0.00260798  0.92620756  0.83254808     0.28300
H4391       H  0.51757301  0.91383459  0.77785336     0.18900
H4392       H  0.55311843  0.51444533  0.79511305     0.18900
C4393       C  0.50864269  0.91054249  0.70675735    -0.06900
C4394       C  0.01265358  0.91625895  0.68514372    -0.18100
C4395       C  0.98910374  0.90399372  0.67212375     0.10300
C4396       C  0.96180639  0.88559200  0.68017349    -0.06900
C4397       C  0.95850389  0.88192937  0.70127485    -0.18100
C4398       C  0.98181897  0.89581277  0.71429875     0.10300
S4399       S  0.99409872  0.91170917  0.64526080    -0.33100
S4400       S  0.47462472  0.89082009  0.74201553    -0.33100
H4401       H  0.49877524  0.88871010  0.74679754     0.28300
H4402       H  0.02341784  0.93133749  0.64608878     0.28300
H4403       H  0.53301289  0.92513331  0.67934244     0.18900
H4404       H  0.93788677  0.86740023  0.70765511     0.18900
C4405       C  0.62964470  0.54874486  0.68942241    -0.06900
C4406       C  0.60063312  0.53216587  0.68507065    -0.18100
C4407       C  0.58350469  0.50629254  0.69520892     0.10300
C4408       C  0.59536271  0.99495195  0.70862014    -0.06900
C4409       C  0.62416565  0.01321745  0.71350030    -0.18100
C4410       C  0.64152935  0.54037051  0.70519251     0.10300
S4411       S  0.54683364  0.48539757  0.68758790    -0.33100
S4412       S  0.67841772  0.56242339  0.71220186    -0.33100
H4413       H  0.67927710  0.54382449  0.72684898     0.28300
H4414       H  0.54392688  0.00305495  0.67417184     0.28300
H4415       H  0.59179262  0.53889376  0.67290173     0.18900
H4416       H  0.63408152  0.00682287  0.72511395     0.18900
C4417       C  0.53905270  0.60718542  0.76750638    -0.06900
C4418       C  0.52764742  0.61494195  0.78387912    -0.18100
C4419       C  0.51943135  0.59922476  0.80193278     0.10300
C4420       C  0.52244203  0.57483056  0.80391642    -0.06900
C4421       C  0.53181025  0.56587260  0.78712476    -0.18100
C4422       C  0.54001869  0.58149234  0.76899451     0.10300
S4423       S  0.50750260  0.61276573  0.82229497    -0.33100
S4424       S  0.55361675  0.56873306  0.74910687    -0.33100
H4425       H  0.53989290  0.54007499  0.75546862     0.28300
H4426       H  0.48009454  0.58870386  0.82251020     0.28300
H4427       H  0.52566543  0.63390913  0.78281931     0.18900
H4428       H  0.53344892  0.54674967  0.78838113     0.18900
C4429       C  0.50743736  0.62180957  0.70746995    -0.06900
C4430       C  0.48872124  0.63190735  0.71250615    -0.18100
C4431       C  0.96357144  0.62159813  0.70395165     0.10300
C4432       C  0.95631510  0.60191635  0.68810180    -0.06900
C4433       C  0.97354861  0.58988329  0.68428537    -0.18100
C4434       C  0.99904034  0.59861932  0.69498259     0.10300
S4435       S  0.94008067  0.63497736  0.71085906    -0.33100
S4436       S  0.01966279  0.58176727  0.68897218    -0.33100
H4437       H  0.49913793  0.56121123  0.67446048     0.28300
H4438       H  0.95547881  0.65046950  0.72793562     0.28300
H4439       H  0.49481715  0.64805384  0.72403721     0.18900
H4440       H  0.96754379  0.57445223  0.67223771     0.18900
C4441       C  0.62474509  0.60168114  0.68597801    -0.06900
C4442       C  0.63003480  0.60617889  0.70685987    -0.18100
C4443       C  0.61543017  0.61615947  0.71881747     0.10300
C4444       C  0.59483520  0.62155355  0.70966283    -0.06900
C4445       C  0.58966535  0.61700859  0.68886595    -0.18100
C4446       C  0.60354884  0.60626317  0.67710202     0.10300
S4447       S  0.62599470  0.62359836  0.74509348    -0.33100
S4448       S  0.59372886  0.59961112  0.65071431    -0.33100
H4449       H  0.60157734  0.57862136  0.64807031     0.28300
H4450       H  0.60393709  0.62785072  0.75200143     0.28300
H4451       H  0.64667248  0.60326203  0.71368898     0.18900
H4452       H  0.57545040  0.62295039  0.68150952     0.18900
C4453       C  0.89382535  0.95763306  0.76847842    -0.06900
C4454       C  0.88779958  0.97217628  0.78358228    -0.18100
C4455       C  0.90296169  0.98023565  0.80178336     0.10300
C4456       C  0.92481472  0.97371810  0.80518680    -0.06900
C4457       C  0.93113835  0.95939587  0.79016009    -0.18100
C4458       C  0.91602897  0.95144461  0.77175802     0.10300
S4459       S  0.89145055  0.49787131  0.82108524    -0.33100
S4460       S  0.92451366  0.93237742  0.75319109    -0.33100
H4461       H  0.94861318  0.93460206  0.76307465     0.28300
H4462       H  0.89699503  0.48625105  0.83850158     0.28300
H4463       H  0.87070867  0.97690478  0.78130746     0.18900
H4464       H  0.94819884  0.95474517  0.79282397     0.18900
C4465       C  0.88326924  0.99479615  0.70767051    -0.06900
C4466       C  0.89224587  0.49489232  0.68869927    -0.18100
C4467       C  0.90211527  0.51929194  0.67650139     0.10300
C4468       C  0.90399800  0.54434024  0.68462782    -0.06900
C4469       C  0.89772058  0.54482618  0.70518666    -0.18100
C4470       C  0.88835031  0.52054581  0.71743091     0.10300
S4471       S  0.91093045  0.51669907  0.65052831    -0.33100
S4472       S  0.88014381  0.52292729  0.74349802    -0.33100
H4473       H  0.89265096  0.00639899  0.74921399     0.28300
H4474       H  0.92935051  0.54594413  0.64727490     0.28300
H4475       H  0.88587266  0.97471867  0.68031397     0.18900
H4476       H  0.89911826  0.56393169  0.71154764     0.18900
C4477       C  0.88300635  0.90883306  0.70802293    -0.06900
C4478       C  0.90087636  0.92364911  0.69163946    -0.18100
C4479       C  0.91114894  0.91037313  0.67856720     0.10300
C4480       C  0.90395446  0.88177503  0.68224754    -0.06900
C4481       C  0.88748223  0.86757891  0.69929540    -0.18100
C4482       C  0.87747034  0.88087010  0.71240449     0.10300
S4483       S  0.93208360  0.93076270  0.65709128    -0.33100
S4484       S  0.85816151  0.86096559  0.73455195    -0.33100
H4485       H  0.86469174  0.88469077  0.74671421     0.28300
H4486       H  0.92676055  0.90782965  0.64446141     0.28300
H4487       H  0.90565517  0.94520850  0.68834453     0.18900
H4488       H  0.88221238  0.84576060  0.70232464     0.18900
C4489       C  0.94024088  0.55861550  0.21382048    -0.06900
C4490       C  0.96767919  0.56193470  0.21361749    -0.10900
C4491       C  0.97727351  0.55276010  0.19717798     0.10300
C4492       C  0.95951221  0.54079413  0.18015548    -0.06900
C4493       C  0.93212003  0.53717951  0.18030288    -0.18100
C4494       C  0.92209718  0.54557268  0.19688825     0.10300
S4495       S  0.51235051  0.55793916  0.19724431    -0.33100
S4496       S  0.88564497  0.53772356  0.19523852    -0.33100
H4497       H  0.88007118  0.53320793  0.21600101     0.28300
H4498       H  0.50384936  0.53104179  0.18887338     0.28300
H4499       H  0.98181819  0.57169885  0.22637858     0.18900
H4500       H  0.91827433  0.52745301  0.16737767     0.18900
C4501       C  0.98450713  0.61159681  0.27072581    -0.06900
C4502       C  0.00110053  0.64070675  0.26584282    -0.18100
C4503       C  0.52712822  0.65997033  0.27451647     0.10300
C4504       C  0.53804974  0.64829646  0.28884734    -0.06900
C4505       C  0.52338473  0.61874391  0.29222131    -0.18100
C4506       C  0.49707393  0.60088849  0.28274717     0.10300
S4507       S  0.54370439  0.69761389  0.26860811    -0.33100
S4508       S  0.47802024  0.56369517  0.28969691    -0.33100
H4509       H  0.99906365  0.56143086  0.30138134     0.28300
H4510       H  0.57075579  0.70620422  0.27666762     0.28300
H4511       H  0.99334078  0.65025257  0.25485693     0.18900
H4512       H  0.53173316  0.60997661  0.30335195     0.18900
C4513       C  0.87144404  0.97703942  0.30342080    -0.06900
C4514       C  0.87004542  0.97489479  0.28223179    -0.18100
C4515       C  0.88498050  0.99896364  0.26984652     0.10300
C4516       C  0.89931887  0.52442993  0.27718635    -0.06900
C4517       C  0.90330585  0.52719514  0.29821077    -0.18100
C4518       C  0.89029522  0.50344167  0.31110317     0.10300
S4519       S  0.88164764  0.99359729  0.24296003    -0.33100
S4520       S  0.89712142  0.50982580  0.33792161    -0.33100
H4521       H  0.88742513  0.98143758  0.34435266     0.28300
H4522       H  0.90415165  0.50924773  0.23690387     0.28300
H4523       H  0.85634825  0.95449640  0.27522446     0.18900
H4524       H  0.91608828  0.54819325  0.30469045     0.18900
C4525       C  0.94583813  0.90780433  0.21755825    -0.06900
C4526       C  0.96164934  0.90249874  0.20309018    -0.18100
C4527       C  0.96897260  0.91678047  0.18450318     0.10300
C4528       C  0.96089162  0.93737488  0.18032571    -0.06900
C4529       C  0.94591956  0.94345845  0.19499306    -0.18100
C4530       C  0.93831058  0.92891549  0.21361704     0.10300
S4531       S  0.98731012  0.90672750  0.16640800    -0.33100
S4532       S  0.91789041  0.93653965  0.23159139    -0.33100
H4533       H  0.91791291  0.95903110  0.22070151     0.28300
H4534       H  0.97430814  0.91071794  0.14914145     0.28300
H4535       H  0.96736668  0.88619604  0.20600372     0.18900
H4536       H  0.94034076  0.95978341  0.19182546     0.18900
C4537       C  0.53304646  0.91346755  0.29616983    -0.06900
C4538       C  0.50902645  0.90974607  0.30684409    -0.18100
C4539       C  0.98141811  0.89912783  0.29839654     0.10300
C4540       C  0.97930649  0.89340964  0.27743787    -0.06900
C4541       C  0.50442464  0.89859397  0.26540584    -0.18100
C4542       C  0.53076245  0.90803215  0.27513952     0.10300
S4543       S  0.95109365  0.89123008  0.31403398    -0.33100
S4544       S  0.56049327  0.91084143  0.26095887    -0.33100
H4545       H  0.54583575  0.89977288  0.24264885     0.28300
H4546       H  0.93122330  0.86718734  0.30326091     0.28300
H4547       H  0.51052935  0.91339187  0.32305057     0.18900
H4548       H  0.50233147  0.89390522  0.24935416     0.18900
C4549       C  0.86691609  0.91840515  0.30088006    -0.06900
C4550       C  0.85187244  0.89952067  0.28515706    -0.18100
C4551       C  0.86491392  0.88879504  0.27242350     0.10300
C4552       C  0.89356220  0.89604337  0.27595390    -0.06900
C4553       C  0.90929189  0.91704520  0.29042794    -0.18100
C4554       C  0.89621587  0.92792162  0.30313328     0.10300
S4555       S  0.84403182  0.86700685  0.25151417    -0.33100
S4556       S  0.91763889  0.95257053  0.32255196    -0.33100
H4557       H  0.89626633  0.94179907  0.33744643     0.28300
H4558       H  0.86721551  0.87488401  0.23838791     0.28300
H4559       H  0.82958615  0.89288278  0.28290401     0.18900
H4560       H  0.93158620  0.92396569  0.29265796     0.18900
C4561       C  0.60038423  0.56249025  0.21229166    -0.06900
C4562       C  0.58001375  0.53355380  0.21073666    -0.18100
C4563       C  0.56268218  0.52300122  0.19353658     0.10300
C4564       C  0.56607840  0.54158847  0.17727677    -0.06900
C4565       C  0.58621750  0.57057256  0.17897421    -0.18100
C4566       C  0.60318694  0.58127627  0.19625864     0.10300
S4567       S  0.53557075  0.48610588  0.19374041    -0.33100
S4568       S  0.62732657  0.61923148  0.19694045    -0.33100
H4569       H  0.62799573  0.62196287  0.21809802     0.28300
H4570       H  0.51281085  0.99075789  0.18945810     0.28300
H4571       H  0.57765819  0.51906013  0.22297618     0.18900
H4572       H  0.58841445  0.58512259  0.16681619     0.18900
C4573       C  0.61088804  0.52181246  0.27094943    -0.06900
C4574       C  0.62392087  0.50513000  0.26763446    -0.18100
C4575       C  0.61417372  0.97855755  0.28042723     0.10300
C4576       C  0.59072423  0.96802114  0.29372912    -0.06900
C4577       C  0.57541917  0.98261598  0.29514359    -0.18100
C4578       C  0.58603762  0.50991850  0.28328737     0.10300
S4579       S  0.63521851  0.96136215  0.27664587    -0.33100
S4580       S  0.56568956  0.52717584  0.28869728    -0.33100
H4581       H  0.58947487  0.55404642  0.29069467     0.28300
H4582       H  0.61487682  0.93395034  0.28317004     0.28300
H4583       H  0.64179924  0.51253645  0.25737955     0.18900
H4584       H  0.55731775  0.97455036  0.30528240     0.18900
C4585       C  0.61188965  0.61050991  0.27283479    -0.06900
C4586       C  0.60020593  0.62422524  0.26144033    -0.18100
C4587       C  0.59261114  0.64292704  0.27054759     0.10300
C4588       C  0.59362222  0.64570243  0.29193360    -0.06900
C4589       C  0.60344410  0.63020841  0.30334681    -0.18100
C4590       C  0.61398121  0.61406073  0.29413332     0.10300
S4591       S  0.58614770  0.66542627  0.25374976    -0.33100
S4592       S  0.63149561  0.60071045  0.31074460    -0.33100
H4593       H  0.63903654  0.58645620  0.29657216     0.28300
H4594       H  0.60171466  0.68997249  0.26553775     0.28300
H4595       H  0.59951365  0.62249102  0.24508738     0.18900
H4596       H  0.60472319  0.63226502  0.31970404     0.18900
C4597       C  0.69816694  0.92223241  0.55790846    -0.06900
C4598       C  0.68671771  0.94025003  0.55539665    -0.18100
C4599       C  0.70005754  0.96775369  0.56358745     0.10300
C4600       C  0.72540089  0.97756976  0.57533500    -0.06900
C4601       C  0.73532639  0.95818779  0.57908324    -0.18100
C4602       C  0.72213917  0.93095423  0.57047191     0.10300
S4603       S  0.68765731  0.49395795  0.55697278    -0.33100
S4604       S  0.73732313  0.90844628  0.57571648    -0.33100
H4605       H  0.71147931  0.88263825  0.57425208     0.28300
H4606       H  0.66686524  0.47605084  0.54300403     0.28300
H4607       H  0.66840982  0.93349077  0.54561728     0.18900
H4608       H  0.75406546  0.96404801  0.58798290     0.18900
C4609       C  0.70859368  0.80930702  0.56041751    -0.06900
C4610       C  0.73778214  0.81978536  0.55805467    -0.18100
C4611       C  0.75132594  0.80604183  0.56694660     0.10300
C4612       C  0.73527300  0.78093001  0.57888795    -0.06900
C4613       C  0.70658865  0.77252705  0.58296856    -0.18100
C4614       C  0.69322699  0.78636248  0.57387013     0.10300
S4615       S  0.78852200  0.81949846  0.56088554    -0.33100
S4616       S  0.65637353  0.77344893  0.57980262    -0.33100
H4617       H  0.65704190  0.79946368  0.57616833     0.28300
H4618       H  0.79357039  0.84475853  0.55105736     0.28300
H4619       H  0.74958065  0.83751460  0.54778771     0.18900
H4620       H  0.69368804  0.75435628  0.59246503     0.18900
C4621       C  0.52852574  0.77560088  0.57551109    -0.06900
C4622       C  0.54437426  0.76130526  0.57428526    -0.18100
C4623       C  0.57081029  0.77320772  0.56440068     0.10300
C4624       C  0.58263290  0.80073968  0.55565283    -0.06900
C4625       C  0.56762525  0.81564466  0.55769866    -0.18100
C4626       C  0.54074515  0.80339900  0.56684867     0.10300
S4627       S  0.58706845  0.75119130  0.56138309    -0.33100
S4628       S  0.52141497  0.82276464  0.56492308    -0.33100
H4629       H  0.04491141  0.84945198  0.56207838     0.28300
H4630       H  0.57122929  0.73084409  0.57636998     0.28300
H4631       H  0.53527284  0.73957438  0.57936675     0.18900
H4632       H  0.57622101  0.83658419  0.55090061     0.18900
C4633       C  0.76012970  0.54377511  0.40535308    -0.06900
C4634       C  0.79012589  0.55988180  0.40612915    -0.18100
C4635       C  0.80448261  0.58649824  0.41555532     0.10300
C4636       C  0.78902240  0.59823431  0.42465567    -0.06900
C4637       C  0.75925800  0.58312832  0.42307226    -0.18100
C4638       C  0.74467475  0.55604169  0.41417902     0.10300
S4639       S  0.84267051  0.60394465  0.41574633    -0.33100
S4640       S  0.70635753  0.53654295  0.41670663    -0.33100
H4641       H  0.70269248  0.55955959  0.42243290     0.28300
H4642       H  0.84517045  0.63081984  0.41322396     0.28300
H4643       H  0.80311998  0.55142029  0.40059406     0.18900
H4644       H  0.74712758  0.59156809  0.43036798     0.18900
C4645       C  0.71400716  0.94639134  0.43469732    -0.06900
C4646       C  0.70307670  0.95389316  0.45145546    -0.18100
C4647       C  0.69661412  0.93867445  0.46974181     0.10300
C4648       C  0.70008126  0.91449266  0.47119142    -0.06900
C4649       C  0.70978370  0.90625459  0.45420357    -0.18100
C4650       C  0.71726825  0.92204856  0.43614226     0.10300
S4651       S  0.68514807  0.95122132  0.49117390    -0.33100
S4652       S  0.73198968  0.91118723  0.41576626    -0.33100
H4653       H  0.73287766  0.88871886  0.42601575     0.28300
H4654       H  0.68869815  0.97643910  0.48215238     0.28300
H4655       H  0.69998580  0.97217657  0.45029128     0.18900
H4656       H  0.71093358  0.88689865  0.45491925     0.18900
C4657       C  0.76210508  0.95831507  0.37501160    -0.06900
C4658       C  0.75178319  0.94454628  0.35644035    -0.18100
C4659       C  0.76688003  0.93450872  0.34516665     0.10300
C4660       C  0.79265575  0.93762953  0.35296867    -0.06900
C4661       C  0.80229734  0.95016343  0.37196774    -0.18100
C4662       C  0.78749589  0.96065733  0.38301993     0.10300
S4663       S  0.75287102  0.91996478  0.32043921    -0.33100
S4664       S  0.80310063  0.97799405  0.40671047    -0.33100
H4665       H  0.77769050  0.97236365  0.41617711     0.28300
H4666       H  0.77241391  0.91127977  0.31492687     0.28300
H4667       H  0.73276064  0.94322503  0.34998549     0.18900
H4668       H  0.82227624  0.95297780  0.37782071     0.18900
C4669       C  0.62497992  0.93339103  0.35089957    -0.06900
C4670       C  0.62699404  0.94955961  0.36801957    -0.18100
C4671       C  0.65089349  0.96056269  0.38071727     0.10300
C4672       C  0.67397566  0.95632532  0.37581165    -0.06900
C4673       C  0.67097845  0.93847044  0.35951039    -0.18100
C4674       C  0.64685656  0.92711016  0.34694226     0.10300
S4675       S  0.65038967  0.97932049  0.40308577    -0.33100
S4676       S  0.64504258  0.90633713  0.32510454    -0.33100
H4677       H  0.67039373  0.90581792  0.32887350     0.28300
H4678       H  0.66754199  0.97196211  0.41486943     0.28300
H4679       H  0.61000204  0.95408550  0.37128968     0.18900
H4680       H  0.68824810  0.93460042  0.35596822     0.18900
C4681       C  0.75739659  0.73877042  0.40191071    -0.06900
C4682       C  0.78721501  0.75083845  0.40024276    -0.18100
C4683       C  0.80194414  0.73889555  0.41015373     0.10300
C4684       C  0.78667044  0.71410818  0.42218151    -0.06900
C4685       C  0.75681295  0.69985075  0.42135695    -0.18100
C4686       C  0.74204937  0.71162214  0.41147092     0.10300
S4687       S  0.84027884  0.75665921  0.40786821    -0.33100
S4688       S  0.70359948  0.69267621  0.41326266    -0.33100
H4689       H  0.70020522  0.66783643  0.42281537     0.28300
H4690       H  0.84299124  0.77535122  0.39199358     0.28300
H4691       H  0.79977243  0.77074601  0.39253238     0.18900
H4692       H  0.74478533  0.68012171  0.42967859     0.18900
C4693       C  0.71242834  0.78741514  0.43621117    -0.06900
C4694       C  0.72993382  0.81561227  0.44231426    -0.18100
C4695       C  0.72576967  0.82540182  0.46088088     0.10300
C4696       C  0.70197470  0.80714370  0.47306279    -0.06900
C4697       C  0.68535796  0.77851660  0.46726277    -0.18100
C4698       C  0.69103114  0.76816008  0.44956815     0.10300
S4699       S  0.75287003  0.86044089  0.46835437    -0.33100
S4700       S  0.67093626  0.73003586  0.44600265    -0.33100
H4701       H  0.67898224  0.72883484  0.42607282     0.28300
H4702       H  0.73377480  0.86982714  0.47264173     0.28300
H4703       H  0.74779745  0.82985278  0.43286282     0.18900
H4704       H  0.66799478  0.76377686  0.47687220     0.18900
C4705       C  0.63025511  0.72323506  0.34280225    -0.06900
C4706       C  0.62576022  0.72341953  0.36375746    -0.18100
C4707       C  0.64848784  0.73741760  0.37733229     0.10300
C4708       C  0.67679051  0.74937816  0.37029445    -0.06900
C4709       C  0.68139136  0.74978298  0.34936073    -0.18100
C4710       C  0.65871710  0.73823594  0.33558056     0.10300
S4711       S  0.63945584  0.73772428  0.40343119    -0.33100
S4712       S  0.66780395  0.74340156  0.30899067    -0.33100
H4713       H  0.64243586  0.74222971  0.30257088     0.28300
H4714       H  0.66132400  0.76555463  0.40712215     0.28300
H4715       H  0.60448626  0.71176649  0.36986981     0.18900
H4716       H  0.70298646  0.75940607  0.34367668     0.18900
C4717       C  0.76192726  0.83186244  0.37767034    -0.06900
C4718       C  0.79081385  0.85004287  0.38236625    -0.18100
C4719       C  0.80739179  0.87555815  0.37177289     0.10300
C4720       C  0.79519069  0.88338000  0.35581007    -0.06900
C4721       C  0.76601091  0.86645690  0.35196682    -0.18100
C4722       C  0.74913841  0.84101423  0.36279769     0.10300
S4723       S  0.84434926  0.89667583  0.37879612    -0.33100
S4724       S  0.71207176  0.81992400  0.35614795    -0.33100
H4725       H  0.71132815  0.83835421  0.34130956     0.28300
H4726       H  0.84779767  0.92301559  0.37224069     0.28300
H4727       H  0.80084455  0.84392870  0.39410749     0.18900
H4728       H  0.75673905  0.87246433  0.33970036     0.18900
C4729       C  0.96729310  0.75019961  0.40928047    -0.06900
C4730       C  0.94555947  0.72378871  0.40208192    -0.18100
C4731       C  0.91786292  0.71060734  0.41019826     0.10300
C4732       C  0.91142232  0.72349304  0.42636052    -0.06900
C4733       C  0.93221057  0.75096699  0.43225277    -0.18100
C4734       C  0.95957937  0.76462993  0.42378735     0.10300
S4735       S  0.89074027  0.67822418  0.39889530    -0.33100
S4736       S  0.98459549  0.80011325  0.43262227    -0.33100
H4737       H  0.96566326  0.80439884  0.44468218     0.28300
H4738       H  0.90812317  0.67442118  0.38490512     0.28300
H4739       H  0.94981726  0.71305364  0.39008234     0.18900
H4740       H  0.92738189  0.76148029  0.44425033     0.18900
C4741       C  0.56471698  0.78720704  0.43368788    -0.06900
C4742       C  0.58774281  0.81506781  0.43375874    -0.18100
C4743       C  0.60555686  0.82597999  0.45074756     0.10300
C4744       C  0.59992834  0.80865904  0.46829795    -0.06900
C4745       C  0.57808303  0.78016540  0.46757075    -0.18100
C4746       C  0.56066305  0.76917594  0.45048453     0.10300
S4747       S  0.63553005  0.86172699  0.44936810    -0.33100
S4748       S  0.53420428  0.73176691  0.45010363    -0.33100
H4749       H  0.53595742  0.72611235  0.47074575     0.28300
H4750       H  0.63371595  0.86619733  0.42850724     0.28300
H4751       H  0.59116876  0.82867819  0.42072448     0.18900
H4752       H  0.57443987  0.76643829  0.48056732     0.18900
C4753       C  0.55135411  0.82840474  0.37512818    -0.06900
C4754       C  0.55664176  0.82633015  0.35462553    -0.18100
C4755       C  0.56641313  0.84977360  0.34152829     0.10300
C4756       C  0.57106808  0.87622048  0.34907520    -0.06900
C4757       C  0.56649831  0.87850613  0.36974890    -0.18100
C4758       C  0.55666408  0.85495909  0.38284076     0.10300
S4759       S  0.57090408  0.84372424  0.31521691    -0.33100
S4760       S  0.55000739  0.86009546  0.40884388    -0.33100
H4761       H  0.54957204  0.83590875  0.41709120     0.28300
H4762       H  0.58752243  0.87224379  0.30913625     0.28300
H4763       H  0.55166431  0.80583825  0.34847713     0.18900
H4764       H  0.56938466  0.89849186  0.37555682     0.18900
C4765       C  0.57040918  0.71789897  0.34435374    -0.06900
C4766       C  0.55041229  0.70120516  0.35918898    -0.18100
C4767       C  0.53952153  0.71299487  0.37295882     0.10300
C4768       C  0.54758226  0.74219722  0.37147071    -0.06900
C4769       C  0.56868074  0.75919909  0.35722929    -0.18100
C4770       C  0.57990580  0.74739484  0.34356937     0.10300
S4771       S  0.51680870  0.68981774  0.39275782    -0.33100
S4772       S  0.60546527  0.77089924  0.32516657    -0.33100
H4773       H  0.59829359  0.75051761  0.30983607     0.28300
H4774       H  0.02588483  0.71159927  0.40785569     0.28300
H4775       H  0.54347108  0.67865032  0.36020331     0.18900
H4776       H  0.57589659  0.78175207  0.35620936     0.18900
C4777       C  0.86773386  0.63717003  0.22651849    -0.06900
C4778       C  0.85331830  0.60726393  0.22736706    -0.18100
C4779       C  0.86512192  0.59224043  0.23680158     0.10300
C4780       C  0.89237585  0.60735227  0.24609494    -0.06900
C4781       C  0.90485413  0.63731340  0.24754497    -0.18100
C4782       C  0.89273116  0.65217795  0.23818929     0.10300
S4783       S  0.84580112  0.55378505  0.23479130    -0.33100
S4784       S  0.91114630  0.69032933  0.24109572    -0.33100
H4785       H  0.88611365  0.69149581  0.24472340     0.28300
H4786       H  0.82004557  0.55072203  0.22735196     0.28300
H4787       H  0.83342962  0.59537073  0.21931730     0.18900
H4788       H  0.92498761  0.65004651  0.25486653     0.18900
C4789       C  0.86571998  0.75744117  0.22330871    -0.06900
C4790       C  0.88330978  0.76115134  0.24000450    -0.18100
C4791       C  0.89488121  0.78622253  0.25159263     0.10300
C4792       C  0.89099870  0.80923589  0.24511319    -0.06900
C4793       C  0.87024313  0.80348810  0.23011748    -0.18100
C4794       C  0.85816254  0.77840635  0.21899305     0.10300
S4795       S  0.90975216  0.78503718  0.27578008    -0.33100
S4796       S  0.83620880  0.77610750  0.19770112    -0.33100
H4797       H  0.81175856  0.75285138  0.20598613     0.28300
H4798       H  0.90154812  0.80308128  0.28534413     0.28300
H4799       H  0.88737368  0.74410232  0.24436282     0.18900
H4800       H  0.86516424  0.81986223  0.22577648     0.18900
C4801       C  0.75227750  0.63597889  0.22364199    -0.06900
C4802       C  0.73547006  0.60634393  0.22283073    -0.18100
C4803       C  0.70826089  0.59217734  0.23136239     0.10300
C4804       C  0.69754615  0.60795816  0.24180305    -0.06900
C4805       C  0.71590587  0.63756103  0.24418779    -0.18100
C4806       C  0.74292501  0.65159479  0.23521319     0.10300
S4807       S  0.68670660  0.55435576  0.22643504    -0.33100
S4808       S  0.76426030  0.68956457  0.23867958    -0.33100
H4809       H  0.79051134  0.69010561  0.23800086     0.28300
H4810       H  0.70847628  0.54983225  0.21898627     0.28300
H4811       H  0.74271271  0.59443964  0.21387023     0.18900
H4812       H  0.70915827  0.65060201  0.25204860     0.18900
C4813       C  0.93066425  0.57700462  0.07382166    -0.06900
C4814       C  0.92064746  0.54762530  0.07111980    -0.18100
C4815       C  0.93413856  0.53402281  0.08033692     0.10300
C4816       C  0.95818191  0.54979690  0.09268201    -0.06900
C4817       C  0.96995379  0.57934796  0.09375816    -0.18100
C4818       C  0.95669039  0.59316550  0.08460137     0.10300
S4819       S  0.91729300  0.99592478  0.07856989    -0.33100
S4820       S  0.97227026  0.63116724  0.08867853    -0.33100
H4821       H  0.99798485  0.63590265  0.09742394     0.28300
H4822       H  0.94338276  0.99612428  0.07937778     0.28300
H4823       H  0.90175741  0.53449916  0.06245876     0.18900
H4824       H  0.98855325  0.59143654  0.10313435     0.18900
C4825       C  0.88145298  0.62718539  0.10033973    -0.06900
C4826       C  0.90172181  0.64219339  0.11542853    -0.18100
C4827       C  0.89435036  0.65031277  0.13347315     0.10300
C4828       C  0.86576452  0.64323199  0.13684040    -0.06900
C4829       C  0.84567222  0.62896700  0.12139331    -0.18100
C4830       C  0.85311982  0.62092682  0.10325430     0.10300
S4831       S  0.92229682  0.66842058  0.15176992    -0.33100
S4832       S  0.82565757  0.60095370  0.08487425    -0.33100
H4833       H  0.80435654  0.60527550  0.09350856     0.28300
H4834       H  0.92119808  0.69385168  0.15014943     0.28300
H4835       H  0.92358964  0.64721663  0.11326906     0.18900
H4836       H  0.82379680  0.62375855  0.12360012     0.18900
C4837       C  0.92727363  0.65864522  0.03912464    -0.06900
C4838       C  0.94763886  0.68277571  0.04950442    -0.18100
C4839       C  0.96457707  0.70863998  0.03937271     0.10300
C4840       C  0.95927140  0.71137649  0.01868649    -0.06900
C4841       C  0.93801390  0.68749950  0.00855397    -0.18100
C4842       C  0.92302684  0.66095687  0.01819916     0.10300
S4843       S  0.48973588  0.73731968  0.05444238    -0.33100
S4844       S  0.90155031  0.63087638  0.00219640    -0.33100
H4845       H  0.90214909  0.60982782  0.01442232     0.28300
H4846       H  0.50996308  0.74992218  0.03889985     0.28300
H4847       H  0.95183606  0.68081607  0.06535546     0.18900
H4848       H  0.93483294  0.68900034  0.99244966     0.18900
C4849       C  0.92631760  0.87726243  0.07000910    -0.06900
C4850       C  0.90901894  0.88380302  0.08229639    -0.18100
C4851       C  0.92026543  0.90870577  0.09374458     0.10300
C4852       C  0.94960883  0.92863186  0.09259785    -0.06900
C4853       C  0.96618023  0.92422183  0.07831602    -0.18100
C4854       C  0.95458357  0.89959988  0.06627272     0.10300
S4855       S  0.89652533  0.91193469  0.11123928    -0.33100
S4856       S  0.97580608  0.90080608  0.04497820    -0.33100
H4857       H  0.95214410  0.88541134  0.03225546     0.28300
H4858       H  0.91448308  0.91703825  0.12801966     0.28300
H4859       H  0.88689900  0.86791781  0.08463086     0.18900
H4860       H  0.98823763  0.94043346  0.07622728     0.18900
C4861       C  0.86684982  0.74599395  0.13579417    -0.06900
C4862       C  0.85908885  0.76715749  0.13375476    -0.18100
C4863       C  0.86494200  0.78343756  0.11603315     0.10300
C4864       C  0.88032257  0.77975452  0.10016410    -0.06900
C4865       C  0.88724708  0.75806409  0.10176809    -0.18100
C4866       C  0.88006667  0.74073998  0.11907715     0.10300
S4867       S  0.85104178  0.80763264  0.11428985    -0.33100
S4868       S  0.88666749  0.71126298  0.11810000    -0.33100
H4869       H  0.85906543  0.69160836  0.12478439     0.28300
H4870       H  0.84642513  0.80487895  0.09321989     0.28300
H4871       H  0.84790794  0.77081218  0.14593492     0.18900
H4872       H  0.89830747  0.75453722  0.08943362     0.18900
C4873       C  0.84235796  0.78868754  0.04094709    -0.06900
C4874       C  0.82424602  0.80000309  0.04458105    -0.18100
C4875       C  0.79845300  0.79020393  0.03420370     0.10300
C4876       C  0.79020239  0.76853244  0.01969598    -0.06900
C4877       C  0.80643554  0.75504920  0.01751799    -0.18100
C4878       C  0.83204205  0.76434809  0.02823188     0.10300
S4879       S  0.77603206  0.80536352  0.03961845    -0.33100
S4880       S  0.85098841  0.74521487  0.02426331    -0.33100
H4881       H  0.82864381  0.72098629  0.01508702     0.28300
H4882       H  0.79531288  0.82739650  0.05225890     0.28300
H4883       H  0.83052616  0.81699050  0.05545733     0.18900
H4884       H  0.79968838  0.73804758  0.00658029     0.18900
C4885       C  0.93161422  0.79111897  0.04118314    -0.06900
C4886       C  0.92244471  0.78029332  0.02166086    -0.18100
C4887       C  0.93594263  0.76840206  0.01049214     0.10300
C4888       C  0.96016328  0.76845400  0.01861066    -0.06900
C4889       C  0.97020321  0.78065264  0.03770610    -0.18100
C4890       C  0.95591408  0.79130767  0.04925458     0.10300
S4891       S  0.92279740  0.75599030  0.98526418    -0.33100
S4892       S  0.97099928  0.80662563  0.07352458    -0.33100
H4893       H  0.94537138  0.80105591  0.08269151     0.28300
H4894       H  0.93371552  0.73732040  0.98346698     0.28300
H4895       H  0.90561895  0.78252593  0.01458405     0.18900
H4896       H  0.99013921  0.78322192  0.04329070     0.18900
C4897       C  0.62981591  0.57763609  0.07266399    -0.06900
C4898       C  0.61134613  0.54828387  0.06917016    -0.18100
C4899       C  0.58410211  0.53346293  0.07801380     0.10300
C4900       C  0.57466654  0.54825779  0.09054816    -0.06900
C4901       C  0.59169917  0.57796532  0.09207058    -0.18100
C4902       C  0.61902707  0.59262973  0.08388093     0.10300
S4903       S  0.56220665  0.49569225  0.07340308    -0.33100
S4904       S  0.64026789  0.63027349  0.08956342    -0.33100
H4905       H  0.62302999  0.63147669  0.10500309     0.28300
H4906       H  0.57868706  0.98896233  0.06313778     0.28300
H4907       H  0.61834720  0.53612162  0.06053499     0.18900
H4908       H  0.58431735  0.58983713  0.10089377     0.18900
C4909       C  0.72802290  0.62378244  0.10110560    -0.06900
C4910       C  0.74797350  0.65276006  0.10255034    -0.18100
C4911       C  0.76483176  0.66378956  0.11983084     0.10300
C4912       C  0.76225183  0.64519811  0.13604165    -0.06900
C4913       C  0.74300855  0.61589775  0.13401898    -0.18100
C4914       C  0.72621712  0.60501889  0.11672637     0.10300
S4915       S  0.78929953  0.70159664  0.11977469    -0.33100
S4916       S  0.70376358  0.56688227  0.11516211    -0.33100
H4917       H  0.70552353  0.56547818  0.09397079     0.28300
H4918       H  0.77613193  0.70645885  0.13646032     0.28300
H4919       H  0.74987075  0.66712297  0.09035909     0.18900
H4920       H  0.74114245  0.60113432  0.14591160     0.18900
C4921       C  0.73735800  0.71068102  0.01634509    -0.06900
C4922       C  0.73264732  0.71248524  0.03705382    -0.18100
C4923       C  0.72180191  0.68840370  0.04968713     0.10300
C4924       C  0.71544078  0.66181218  0.04132893    -0.06900
C4925       C  0.72032661  0.66018432  0.02070527    -0.18100
C4926       C  0.73214459  0.68435647  0.00833402     0.10300
S4927       S  0.71518153  0.69331964  0.07578077    -0.33100
S4928       S  0.73957665  0.68003960  0.98236279    -0.33100
H4929       H  0.76110873  0.70841705  0.97934018     0.28300
H4930       H  0.70453052  0.66539730  0.08281310     0.28300
H4931       H  0.73614047  0.73252108  0.04321153     0.18900
H4932       H  0.71427389  0.63969786  0.01403342     0.18900
C4933       C  0.84063851  0.57277875  0.04331408    -0.06900
C4934       C  0.83674452  0.58693033  0.02681541    -0.18100
C4935       C  0.81360834  0.57291661  0.01368971     0.10300
C4936       C  0.79206601  0.54491965  0.01847302    -0.06900
C4937       C  0.79446791  0.53170715  0.03614165    -0.18100
C4938       C  0.81852603  0.54519637  0.04854876     0.10300
S4939       S  0.81468489  0.59148261  0.99049401    -0.33100
S4940       S  0.81932982  0.52619871  0.07091752    -0.33100
H4941       H  0.83670454  0.55050679  0.08247942     0.28300
H4942       H  0.79093427  0.56969953  0.98064313     0.28300
H4943       H  0.85270258  0.60854770  0.02339021     0.18900
H4944       H  0.77789763  0.51029304  0.03990434     0.18900
C4945       C  0.71668928  0.57557803  0.04236197    -0.06900
C4946       C  0.70607871  0.54640950  0.04650732    -0.18100
C4947       C  0.71550594  0.53034670  0.03585803     0.10300
C4948       C  0.73592142  0.54339351  0.02040774    -0.06900
C4949       C  0.74791982  0.57270426  0.01709757    -0.18100
C4950       C  0.73927779  0.58917286  0.02820181     0.10300
S4951       S  0.69942958  0.98919165  0.04323773    -0.33100
S4952       S  0.75673604  0.62687818  0.02297112    -0.33100
H4953       H  0.77656171  0.62813489  0.00867350     0.28300
H4954       H  0.72244592  0.98639402  0.03626709     0.28300
H4955       H  0.68980729  0.53576792  0.05795642     0.18900
H4956       H  0.76303976  0.58245490  0.00496069     0.18900
C4957       C  0.74292389  0.88622189  0.75872499    -0.06900
C4958       C  0.74781285  0.87206170  0.74277069    -0.18100
C4959       C  0.77367648  0.88488463  0.73198787     0.10300
C4960       C  0.79631869  0.91174249  0.73836358    -0.06900
C4961       C  0.78962658  0.92716138  0.75226963    -0.18100
C4962       C  0.76403325  0.91476441  0.76284570     0.10300
S4963       S  0.77383551  0.86781289  0.70870435    -0.33100
S4964       S  0.76167468  0.93617326  0.78282097    -0.33100
H4965       H  0.75741589  0.91601628  0.79801249     0.28300
H4966       H  0.79148841  0.89360379  0.69848879     0.28300
H4967       H  0.73111885  0.85107995  0.73835927     0.18900
H4968       H  0.80577421  0.94854959  0.75640805     0.18900
C4969       C  0.61964858  0.76218422  0.75733984    -0.06900
C4970       C  0.59002177  0.74507819  0.75875566    -0.18100
C4971       C  0.57567887  0.71774814  0.75030461     0.10300
C4972       C  0.59129426  0.70686789  0.73988958    -0.06900
C4973       C  0.62069046  0.72553020  0.73676226    -0.18100
C4974       C  0.63483707  0.75280214  0.74530644     0.10300
S4975       S  0.53767497  0.69647950  0.75457879    -0.33100
S4976       S  0.67242322  0.77451273  0.74043308    -0.33100
H4977       H  0.67263806  0.80065061  0.74110077     0.28300
H4978       H  0.53361251  0.71782219  0.76342152     0.28300
H4979       H  0.57824605  0.75235211  0.76781946     0.18900
H4980       H  0.63348741  0.71918546  0.72824754     0.18900
C4981       C  0.61763525  0.87745786  0.75887619    -0.06900
C4982       C  0.58832002  0.86662234  0.76144036    -0.18100
C4983       C  0.57411929  0.87948210  0.75233716     0.10300
C4984       C  0.58950743  0.90420324  0.73999641    -0.06900
C4985       C  0.61817752  0.91288704  0.73557791    -0.18100
C4986       C  0.63222430  0.89975529  0.74468477     0.10300
S4987       S  0.53678337  0.86518898  0.75836424    -0.33100
S4988       S  0.66882531  0.91290250  0.73765622    -0.33100
H4989       H  0.66631770  0.88570479  0.73709061     0.28300
H4990       H  0.53305016  0.84210749  0.77052010     0.28300
H4991       H  0.57662938  0.84891392  0.77171004     0.18900
H4992       H  0.63050653  0.93054370  0.72553441     0.18900
C4993       C  0.53094410  0.58550597  0.89257434    -0.06900
C4994       C  0.51756147  0.60189509  0.89361170    -0.18100
C4995       C  0.53113081  0.62910915  0.90217557     0.10300
C4996       C  0.55851511  0.63991875  0.91133689    -0.06900
C4997       C  0.57055806  0.62193542  0.91186586    -0.18100
C4998       C  0.55729384  0.59516155  0.90241317     0.10300
S4999       S  0.51384479  0.65033702  0.89916577    -0.33100
S5000       S  0.57446372  0.57370763  0.90264764    -0.33100
H5001       H  0.59911073  0.59295760  0.91323288     0.28300
H5002       H  0.49237474  0.63246781  0.88558654     0.28300
H5003       H  0.49726443  0.59426502  0.88609007     0.18900
H5004       H  0.59134871  0.62932396  0.91826549     0.18900
C5005       C  0.61067229  0.73551749  0.87920426    -0.06900
C5006       C  0.63937826  0.75673514  0.87827705    -0.18100
C5007       C  0.65059868  0.77409552  0.86105640     0.10300
C5008       C  0.63279789  0.76985594  0.84407561    -0.06900
C5009       C  0.60415678  0.74840547  0.84509028    -0.18100
C5010       C  0.59282018  0.73149208  0.86237736     0.10300
S5011       S  0.68732990  0.80171734  0.86222574    -0.33100
S5012       S  0.55512065  0.70607446  0.86292241    -0.33100
H5013       H  0.54882044  0.70987850  0.84283153     0.28300
H5014       H  0.68179788  0.82334525  0.85578458     0.28300
H5015       H  0.65319835  0.75982330  0.89108615     0.18900
H5016       H  0.59030863  0.74518062  0.83230871     0.18900
C5017       C  0.65019209  0.72653607  0.93890608    -0.06900
C5018       C  0.66822036  0.71515158  0.93534532    -0.18100
C5019       C  0.69384424  0.72478327  0.94582024     0.10300
C5020       C  0.70195640  0.74625729  0.96054699    -0.06900
C5021       C  0.68528210  0.75920578  0.96315184    -0.18100
C5022       C  0.65970122  0.74990410  0.95243070     0.10300
S5023       S  0.71492443  0.70829392  0.93999843    -0.33100
S5024       S  0.63906925  0.76696172  0.95785352    -0.33100
H5025       H  0.66029888  0.79051347  0.96837679     0.28300
H5026       H  0.74119691  0.73132224  0.94598960     0.28300
H5027       H  0.66212081  0.69819615  0.92442918     0.18900
H5028       H  0.69158704  0.77562460  0.97451289     0.18900
C5029       C  0.53707206  0.74882699  0.96708422    -0.06900
C5030       C  0.53271645  0.74655343  0.94602137    -0.18100
C5031       C  0.54755882  0.73770635  0.93339253     0.10300
C5032       C  0.56589183  0.72895319  0.94193881    -0.06900
C5033       C  0.56957615  0.73016294  0.96300577    -0.18100
C5034       C  0.55609536  0.74064873  0.97560091     0.10300
S5035       S  0.54053479  0.73588782  0.90663110    -0.33100
S5036       S  0.56288125  0.74111889  0.00246458    -0.33100
H5037       H  0.55450090  0.76088715  0.00793972     0.28300
H5038       H  0.56900135  0.74601166  0.90111230     0.28300
H5039       H  0.01413715  0.74911776  0.93938129     0.18900
H5040       H  0.58254225  0.72215211  0.96977457     0.18900
C5041       C  0.91676369  0.96428297  0.89248130    -0.06900
C5042       C  0.89922892  0.93483720  0.89065793    -0.18100
C5043       C  0.87184623  0.92082871  0.89899418     0.10300
C5044       C  0.86166986  0.93660363  0.91006758    -0.06900
C5045       C  0.88078568  0.96580418  0.91350401    -0.18100
C5046       C  0.90797548  0.97965323  0.90482865     0.10300
S5047       S  0.84949896  0.88333924  0.89327569    -0.33100
S5048       S  0.92944229  0.51409769  0.91313015    -0.33100
H5049       H  0.95504496  0.51364679  0.91071471     0.28300
H5050       H  0.87050269  0.87878326  0.88439343     0.28300
H5051       H  0.90612281  0.92314587  0.88113241     0.18900
H5052       H  0.87462721  0.97879245  0.92202591     0.18900
C5053       C  0.73267535  0.87843807  0.84360142    -0.06900
C5054       C  0.72601411  0.89097909  0.85978339    -0.18100
C5055       C  0.74201429  0.89893302  0.87772004     0.10300
C5056       C  0.76486707  0.89352659  0.87986025    -0.06900
C5057       C  0.77131204  0.88067680  0.86379900    -0.18100
C5058       C  0.75592931  0.87352205  0.84563456     0.10300
S5059       S  0.73408873  0.91765161  0.89694945    -0.33100
S5060       S  0.76761437  0.85986209  0.82500179    -0.33100
H5061       H  0.78814562  0.85644312  0.83587434     0.28300
H5062       H  0.71142842  0.91819648  0.88683876     0.28300
H5063       H  0.70815657  0.89466881  0.85834776     0.18900
H5064       H  0.78896826  0.87669916  0.86541184     0.18900
C5065       C  0.77375524  0.85425869  0.94055969    -0.06900
C5066       C  0.77052541  0.85533038  0.96150317    -0.18100
C5067       C  0.75928346  0.83070134  0.97342406     0.10300
C5068       C  0.75383481  0.80466915  0.96465306    -0.06900
C5069       C  0.75686047  0.80347036  0.94360154    -0.18100
C5070       C  0.76614235  0.82785963  0.93145053     0.10300
S5071       S  0.75256360  0.83399204  0.99974526    -0.33100
S5072       S  0.76968261  0.82452791  0.90464750    -0.33100
H5073       H  0.75939266  0.84295639  0.89930289     0.28300
H5074       H  0.73100138  0.80551665  0.00234675     0.28300
H5075       H  0.77735424  0.87563466  0.96873342     0.18900
H5076       H  0.75287295  0.78369633  0.93668439     0.18900
C5077       C  0.77673808  0.94257926  0.94000935    -0.06900
C5078       C  0.78778766  0.97178200  0.93577364    -0.18100
C5079       C  0.77869974  0.98826714  0.94629653     0.10300
C5080       C  0.75809623  0.97556454  0.96173640    -0.06900
C5081       C  0.74647503  0.94639343  0.96561057    -0.18100
C5082       C  0.75460697  0.92954443  0.95450104     0.10300
S5083       S  0.79530174  0.52519775  0.94051742    -0.33100
S5084       S  0.73734145  0.89207560  0.96032717    -0.33100
H5085       H  0.71412652  0.89051310  0.97100064     0.28300
H5086       H  0.77471168  0.53097403  0.94838563     0.28300
H5087       H  0.80407190  0.98207735  0.92427398     0.18900
H5088       H  0.73211086  0.93699042  0.97827814     0.18900
C5089       C  0.54035710  0.97222199  0.89003743    -0.06900
C5090       C  0.52432680  0.95077999  0.90419608    -0.18100
C5091       C  0.53635036  0.93713162  0.91537018     0.10300
C5092       C  0.56448547  0.94301948  0.91080831    -0.06900
C5093       C  0.58106792  0.96670399  0.89815169    -0.18100
C5094       C  0.56946692  0.98113334  0.88779583     0.10300
S5095       S  0.51560829  0.91600870  0.93652619    -0.33100
S5096       S  0.59205356  0.00817971  0.86989972    -0.33100
H5097       H  0.58932830  0.02973645  0.87972244     0.28300
H5098       H  0.53946973  0.92438272  0.94912981     0.28300
H5099       H  0.50236137  0.94503425  0.90685481     0.18900
H5100       H  0.60306279  0.97283642  0.89513802     0.18900
C5101       C  0.61454681  0.89423415  0.88237824    -0.06900
C5102       C  0.61041857  0.86648526  0.88229766    -0.18100
C5103       C  0.61747206  0.85579872  0.86533243     0.10300
C5104       C  0.62778094  0.87278057  0.84755544    -0.06900
C5105       C  0.63315961  0.90102231  0.84812213    -0.18100
C5106       C  0.62747993  0.91211375  0.86540165     0.10300
S5107       S  0.61390944  0.82094628  0.86783925    -0.33100
S5108       S  0.63845202  0.94958906  0.86502177    -0.33100
H5109       H  0.64448825  0.95381473  0.88588799     0.28300
H5110       H  0.64039598  0.82916829  0.85882356     0.28300
H5111       H  0.60137881  0.85286266  0.89546620     0.18900
H5112       H  0.64217972  0.91483213  0.83503707     0.18900
C5113       C  0.53643946  0.80526476  0.96615933    -0.06900
C5114       C  0.52811552  0.80494556  0.94592932    -0.18100
C5115       C  0.54216489  0.82894673  0.93339279     0.10300
C5116       C  0.56379797  0.85465365  0.94163129    -0.06900
C5117       C  0.57085536  0.85549367  0.96214392    -0.18100
C5118       C  0.55823034  0.83103438  0.97428810     0.10300
S5119       S  0.52977311  0.82573392  0.90758827    -0.33100
S5120       S  0.56912376  0.83484877  0.00048728    -0.33100
H5121       H  0.56181920  0.80634202  0.00351286     0.28300
H5122       H  0.55403349  0.84916751  0.89952244     0.28300
H5123       H  0.00851080  0.78643208  0.94025725     0.18900
H5124       H  0.58544206  0.87567371  0.96902843     0.18900
C5125       C  0.64956337  0.94186399  0.94178439    -0.06900
C5126       C  0.66726014  0.97119220  0.93798213    -0.18100
C5127       C  0.69274806  0.98741620  0.94849342     0.10300
C5128       C  0.70130203  0.97408434  0.96321582    -0.06900
C5129       C  0.68448534  0.94476829  0.96648289    -0.18100
C5130       C  0.65938992  0.92828073  0.95553285     0.10300
S5131       S  0.71061636  0.52623171  0.94265695    -0.33100
S5132       S  0.64028534  0.89054012  0.96059447    -0.33100
H5133       H  0.66141243  0.88899094  0.97211844     0.28300
H5134       H  0.73495649  0.53462569  0.95449375     0.28300
H5135       H  0.66088965  0.98189187  0.92692655     0.18900
H5136       H  0.69019486  0.93493244  0.97856556     0.18900
loop_ 
_geom_bond_atom_site_label_1 
_geom_bond_atom_site_label_2 
_geom_bond_distance 
_geom_bond_site_symmetry_2 
_ccdc_geom_bond_type 
C1            C2   1.536       .  S
C1            C7   1.537       .  S
C1            C5   1.538       .  S
C1         C1240   1.542       .  S
C2            H9   1.076       .  S
C2            C3   1.364       .  D
C3            C4   1.544       .  S
C3         C1264   1.477       .  S
C4            C8   1.535       .  S
C4            C6   1.543       .  S
C4           H10   1.106       .  S
C5           H11   1.086       .  S
C5            C6   1.374       .  D
C6         C1273   1.503       .  S
C7           H12   1.087       .  S
C7            C8   1.360       .  D
C8         C1249   1.479       .  S
C13          C14   1.546       .  S
C13          C19   1.529       .  S
C13          C17   1.536       .  S
C13        C1192   1.540       .  S
C14          H21   1.081       .  S
C14          C15   1.372       .  D
C15          C16   1.546       .  S
C15        C1225   1.495       .  S
C16          C20   1.541       .  S
C16          C18   1.545       .  S
C16          H22   1.109       .  S
C17          H23   1.086       .  S
C17          C18   1.364       .  D
C18        C1213   1.483       .  S
C19          H24   1.087       .  S
C19          C20   1.360       .  D
C20        C1204   1.486       .  S
C25          C26   1.550       .  S
C25          C31   1.530       .  S
C25          C29   1.537       .  S
C25        C1144   1.544       .  S
C26          H33   1.081       .  S
C26          C27   1.377       .  D
C27          C28   1.544       .  S
C27        C1165   1.500       .  S
C28          C32   1.541       .  S
C28          C30   1.543       .  S
C28          H34   1.108       .  S
C29          H35   1.086       .  S
C29          C30   1.365       .  D
C30        C1180   1.482       .  S
C31          H36   1.087       .  S
C31          C32   1.358       .  D
C32        C1153   1.487       .  S
O37          C52   1.262       .  A
O37         Al45   1.903       .  S
C38          O48   1.257       .  A
C38          O39   1.259       .  A
C38        C1156   1.490       .  S
O39         Al41   1.896       .  S
O40          C42   1.258       .  A
O40         Al41   1.898       .  S
Al41         O49   1.891       .  S
Al41         O51   1.906       .  S
Al41         O50   1.779       .  S
C42          O55   1.262       .  A
C42        C1252   1.488       .  S
O43          C53   1.260       .  A
O43         Al45   1.888       .  S
O44          C57   1.265       .  A
O44         Al54   1.916       .  S
Al45         O58   1.894       .  S
Al45         O55   1.910       .  S
Al45         O50   1.782       .  S
O46          C53   1.263       .  A
O46         Al54   1.913       .  S
O47          C56   1.269       .  A
O47         Al54   1.936       .  S
O48         Al54   1.907       .  S
O49          C56   1.262       .  A
O50         Al54   1.784       .  S
O51          C52   1.264       .  A
C52        C1129   1.490       .  S
C53        C1201   1.486       .  S
C56        C1117   1.487       .  S
C57          O58   1.258       .  A
C57        C1105   1.491       .  S
C59        C1276   1.480       .  S
C59          C60   1.416       .  A
C59        C1348   1.402       .  A
C60        C1228   1.483       .  S
C60        C1345   1.402       .  A
C61          C62   1.401   1_556  A
C61        C1344   1.405   1_545  A
C61          H66   1.085       .  S
C62        C1084   1.479       .  S
C62          C63   1.410       .  A
C63        C1096   1.481       .  S
C63          C64   1.403   1_554  A
C64        C1343   1.404   1_545  A
C64          H65   1.085       .  S
C67          C68   1.536       .  S
C67          C73   1.533       .  S
C67          C71   1.550       .  S
C67        C1045   1.541       .  S
C68          H75   1.086       .  S
C68          C69   1.362       .  D
C69          C70   1.543       .  S
C69        C1072   1.481       .  S
C70          C74   1.531       .  S
C70          C72   1.543       .  S
C70          H76   1.106       .  S
C71          H77   1.081       .  S
C71          C72   1.378       .  D
C72        C1093   1.500       .  S
C73          H78   1.087       .  S
C73          C74   1.358       .  D
C74        C1057   1.476       .  S
C79          C80   1.538       .  S
C79          C85   1.539       .  S
C79          C83   1.539       .  S
C79         C997   1.545       .  S
C80          H87   1.078       .  S
C80          C81   1.365       .  D
C81          C82   1.549       .  S
C81        C1033   1.486       .  S
C82          C86   1.540       .  S
C82          C84   1.548       .  S
C82          H88   1.107       .  S
C83          H89   1.086       .  S
C83          C84   1.375       .  D
C84        C1021   1.509       .  S
C85          H90   1.087       .  S
C85          C86   1.360       .  D
C86        C1012   1.486       .  S
C91          C92   1.546       .  S
C91          C97   1.530       .  S
C91          C95   1.535       .  S
C91         C961   1.536       .  S
C92          H99   1.081       .  S
C92          C93   1.371       .  D
C93          C94   1.544       .  S
C93        C1081   1.487       .  S
C94          C98   1.543       .  S
C94          C96   1.541       .  S
C94         H100   1.110       .  S
C95         H101   1.086       .  S
C95          C96   1.363       .  D
C96         C985   1.480       .  S
C97         H102   1.087       .  S
C97          C98   1.360       .  D
C98         C973   1.489       .  S
O103        C118   1.263       .  A
O103       Al111   1.910       .  S
C104        O114   1.253       .  A
C104        O105   1.261       .  A
C104       C1060   1.483       .  S
O105       Al107   1.912       .  S
O106        C108   1.257       .  A
O106       Al107   1.872       .  S
Al107       O115   1.882       .  S
Al107       O117   1.902       .  S
Al107       O116   1.781       .  S
C108        O121   1.265       .  A
C108        C976   1.485       .  S
O109        C119   1.259       .  A
O109       Al111   1.898       .  S
O110        C123   1.257       .  A
O110       Al120   1.884       .  S
Al111       O124   1.934       .  S
Al111       O121   1.931       .  S
Al111       O116   1.783       .  S
O112        C119   1.264       .  A
O112       Al120   1.921       .  S
O113        C122   1.267       .  A
O113       Al120   1.929       .  S
O114       Al120   1.880       .  S
O115        C122   1.259       .  A
O116       Al120   1.778       .  S
O117        C118   1.263       .  A
C118        C925   1.495       .  S
C119       C1009   1.493       .  S
C122        C949   1.475       .  S
C123        O124   1.266       .  A
C123        C937   1.479       .  S
C125       C1177   1.497       .  S
C125        C126   1.420       .  A
C125       C2698   1.404   1_455  A
C126       C1261   1.479       .  S
C126       C2695   1.404   1_455  A
C127        C128   1.402   1_556  A
C127       C2694   1.405       .  A
C127        H132   1.085       .  S
C128       C1036   1.484       .  S
C128        C129   1.414       .  A
C129        C988   1.484       .  S
C129        C130   1.405   1_554  A
C130       C2693   1.405       .  A
C130        H131   1.085       .  S
C133       C1168   1.484       .  S
C133        C134   1.414       .  A
C133        C138   1.404       .  A
C134       C1216   1.494       .  S
C134        C135   1.408       .  A
C135        C136   1.406   1_556  A
C135        H140   1.084       .  S
C136       C1024   1.489       .  S
C136        C137   1.413       .  A
C137       C1069   1.488       .  S
C137        C138   1.406   1_554  A
C138        H139   1.085       .  S
C141       C2710   1.537       .  S
C141       C2715   1.532       .  S
C141       C2713   1.553       .  S
C141        C877   1.547       .  S
C142       C2709   1.535   1_455  S
C142       H2717   1.086   1_455  S
C142        C143   1.363       .  D
C143        C144   1.540       .  S
C143        C901   1.477       .  S
C144        C148   1.537       .  S
C144        C146   1.540       .  S
C144        H150   1.110       .  S
C145       C2709   1.554   1_455  S
C145       H2719   1.080   1_455  S
C145        C146   1.376       .  D
C146        C916   1.499       .  S
C147       C2709   1.533   1_455  S
C147        H152   1.087       .  S
C147        C148   1.360       .  D
C148        C889   1.481       .  S
H149       C2710   1.086       .  S
H151       C2713   1.080       .  S
C153        C154   1.541       .  S
C153        C159   1.529       .  S
C153        C157   1.549       .  S
C153        C829   1.545       .  S
C154        H161   1.086       .  S
C154        C155   1.370       .  D
C155        C156   1.546       .  S
C155        C856   1.490       .  S
C156        C160   1.543       .  S
C156        C158   1.548       .  S
C156        H162   1.108       .  S
C157        H163   1.082       .  S
C157        C158   1.374       .  D
C158        C865   1.505       .  S
C159        H164   1.087       .  S
C159        C160   1.354       .  D
C160        C841   1.479       .  S
C165        C166   1.535       .  S
C165        C169   1.545       .  S
C165       C1455   1.539   1_545  S
C165        C781   1.544       .  S
C166        H173   1.087       .  S
C166       C1451   1.364   1_545  D
C167        C168   1.543       .  S
C167       C1450   1.363       .  D
C167        C805   1.483       .  S
C168        C172   1.542       .  S
C168        C170   1.539       .  S
C168        H174   1.108       .  S
C169        H175   1.075       .  S
C169       C1454   1.369   1_545  D
C170       C1453   1.369       .  D
C170        C820   1.491       .  S
C171       C1449   1.537       .  S
C171        H176   1.087       .  S
C171        C172   1.365       .  D
C172        C793   1.492       .  S
O177        C192   1.262       .  A
O177       Al185   1.891       .  S
C178        O188   1.258       .  A
C178        O179   1.260       .  A
C178        C844   1.484       .  S
O179       Al181   1.917       .  S
O180        C182   1.257       .  A
O180       Al181   1.890       .  S
Al181       O189   1.893       .  S
Al181       O191   1.919       .  S
Al181       O190   1.785       .  S
C182        O195   1.258       .  A
C182        C796   1.479       .  S
O183        C193   1.257       .  A
O183       Al185   1.881       .  S
O184        C197   1.260       .  A
O184       Al194   1.905       .  S
Al185       O198   1.911       .  S
Al185       O195   1.909       .  S
Al185       O190   1.788       .  S
O186        C193   1.266       .  A
O186       Al194   1.920       .  S
O187        C196   1.264       .  A
O187       Al194   1.915       .  S
O188       Al194   1.888       .  S
O189        C196   1.261       .  A
O190       Al194   1.782       .  S
O191        C192   1.266       .  A
C192        C745   1.473       .  S
C193        C892   1.482       .  S
C196        C757   1.479       .  S
C197        O198   1.262       .  A
C197        C772   1.496       .  S
C199        C200   1.544       .  S
C199        C205   1.528       .  S
C199        C203   1.534       .  S
C199        C952   1.537       .  S
C200        H207   1.082       .  S
C200        C201   1.368       .  D
C201        C202   1.548       .  S
C201        C733   1.483       .  S
C202        C206   1.537       .  S
C202        C204   1.553       .  S
C202        H208   1.106       .  S
C203        H209   1.085       .  S
C203        C204   1.376       .  D
C204        C721   1.512       .  S
C205        H210   1.087       .  S
C205        C206   1.354       .  D
C206        C709   1.476       .  S
C211        C212   1.544       .  S
C211        C217   1.537       .  S
C211        C215   1.535       .  S
C211        C940   1.542       .  S
C212        H219   1.079       .  S
C212        C213   1.368       .  D
C213        C214   1.541       .  S
C213        C688   1.484       .  S
C214        C218   1.542       .  S
C214        C216   1.544       .  S
C214        H220   1.110       .  S
C215        H221   1.086       .  S
C215        C216   1.369       .  D
C216        C700   1.493       .  S
C217        H222   1.087       .  S
C217        C218   1.361       .  D
C218        C673   1.486       .  S
C223        C224   1.541       .  S
C223        C229   1.533       .  S
C223        C227   1.540       .  S
C223        C928   1.545       .  S
C224        H231   1.086       .  S
C224        C225   1.368       .  D
C225        C226   1.542       .  S
C225        C664   1.485       .  S
C226        C230   1.543       .  S
C226        C228   1.551       .  S
C226        H232   1.108       .  S
C227        H233   1.080       .  S
C227        C228   1.371       .  D
C228        C649   1.503       .  S
C229        H234   1.086       .  S
C229        C230   1.360       .  D
C230        C637   1.490       .  S
O235        C250   1.258       .  A
O235      Al2811   1.885       .  S
C236        O246   1.255       .  A
C236        O237   1.257       .  A
C236        C676   1.467       .  S
O237       Al239   1.893       .  S
O238        C240   1.254       .  A
O238      Al1523   1.887   1_545  S
Al239       O247   1.890       .  S
Al239      O1522   1.884       .  S
Al239      O1533   1.909       .  S
Al239      O1532   1.798       .  S
C240        O253   1.259       .  A
C240        C640   1.474       .  S
O241        C251   1.254       .  A
O241       Al243   1.866       .  S
O242        C255   1.260       .  A
O242      Al1536   1.910   1_545  S
Al243       O256   1.888       .  S
Al243      O2803   1.885   1_455  S
Al243      O2821   1.910   1_455  S
Al243      O2816   1.793   1_455  S
O244        C251   1.263       .  A
O244      Al1536   1.924   1_545  S
O245        C254   1.263       .  A
O245      Al2820   1.923       .  S
O246      Al2820   1.879       .  S
O247        C254   1.258       .  A
O248      Al1523   1.796   1_545  S
O248      Al2811   1.792       .  S
O248      Al4104   1.800   1_545  S
O249        C250   1.262       .  A
O249      Al1523   1.912   1_545  S
C250        C964   1.478       .  S
C251        C712   1.470       .  S
Al252      O1526   1.916       .  S
Al252      O1528   1.930       .  S
Al252      O2813   1.921   1_455  S
Al252      O2814   1.881   1_455  S
Al252      O4100   1.804   1_455  S
O253      Al2811   1.913       .  S
C254       C1000   1.484       .  S
C255        O256   1.259       .  A
C255       C1048   1.495       .  S
C257        C913   1.491       .  S
C257        C258   1.420       .  A
C257        C262   1.405       .  A
C258        C853   1.498       .  S
C258        C259   1.409       .  A
C259        C260   1.408       .  A
C259        H264   1.084       .  S
C260        C736   1.499       .  S
C260        C261   1.417       .  A
C261        C652   1.486       .  S
C261        C262   1.407       .  A
C262        H263   1.085       .  S
C265        C808   1.477       .  S
C265        C266   1.411       .  A
C265        C270   1.402       .  A
C266        C868   1.489       .  S
C266        C267   1.406       .  A
C267        C268   1.408       .  A
C267        H272   1.085       .  S
C268        C697   1.486       .  S
C268        C269   1.417       .  A
C269        C661   1.488       .  S
C269        C270   1.405       .  A
C270        H271   1.085       .  S
C273        C817   1.485       .  S
C273        C274   1.411       .  A
C273        C278   1.401       .  A
C274        C904   1.483       .  S
C274        C275   1.406       .  A
C275        C276   1.407       .  A
C275        H280   1.085       .  S
C276        C685   1.494       .  S
C276        C277   1.418       .  A
C277        C724   1.485       .  S
C277        C278   1.408       .  A
C278        H279   1.085       .  S
C281        C282   1.537       .  S
C281        C287   1.539       .  S
C281        C285   1.543       .  S
C281       C1108   1.545       .  S
C282        H289   1.087       .  S
C282        C283   1.363       .  D
C283        C284   1.540       .  S
C283        C613   1.483       .  S
C284        C288   1.544       .  S
C284        C286   1.541       .  S
C284        H290   1.110       .  S
C285        H291   1.076       .  S
C285        C286   1.371       .  D
C286        C625   1.487       .  S
C287        H292   1.087       .  S
C287        C288   1.363       .  D
C288        C601   1.490       .  S
C293        C294   1.544       .  S
C293        C299   1.534       .  S
C293        C297   1.541       .  S
C293       C1120   1.547       .  S
C294        H301   1.081       .  S
C294        C295   1.366       .  D
C295        C296   1.548       .  S
C295        C592   1.482       .  S
C296        C300   1.541       .  S
C296        C298   1.545       .  S
C296        H302   1.103       .  S
C297        H303   1.086       .  S
C297        C298   1.373       .  D
C298        C577   1.505       .  S
C299        H304   1.087       .  S
C299        C300   1.365       .  D
C300        C565   1.496       .  S
C305        C306   1.535       .  S
C305        C311   1.531       .  S
C305        C309   1.547       .  S
C305       C1132   1.538       .  S
C306        H313   1.086       .  S
C306        C307   1.365       .  D
C307        C308   1.542       .  S
C307        C541   1.478       .  S
C308        C312   1.536       .  S
C308        C310   1.544       .  S
C308        H314   1.107       .  S
C309        H315   1.081       .  S
C309        C310   1.376       .  D
C310        C556   1.499       .  S
C311        H316   1.087       .  S
C311        C312   1.353       .  D
C312        C529   1.474       .  S
O317       C1616   1.260   1_545  A
O317       Al325   1.893       .  S
C318        O319   1.264       .  A
C318       O1612   1.258       .  A
C318        C604   1.470       .  S
O319       Al321   1.918       .  S
O320       C2890   1.253       .  A
O320       Al321   1.878       .  S
Al321       O329   1.894       .  S
Al321      O2899   1.922       .  S
Al321      O1614   1.785       .  S
C322       O2888   1.254   1_455  A
C322       O1619   1.262       .  A
C322        C532   1.473       .  S
O323        C333   1.257       .  A
O323       Al325   1.884       .  S
O324       C2905   1.261       .  A
O324       Al334   1.893       .  S
Al325       O338   1.926       .  S
Al325       O335   1.919       .  S
Al325      O2898   1.783   1_455  S
O326        C333   1.261       .  A
O326      Al2902   1.919   1_455  S
O327       C1620   1.263       .  A
O327       Al334   1.917   1_565  S
O328       C1602   1.258   1_545  A
O328       Al334   1.888       .  S
O329        C336   1.259       .  A
O330       Al334   1.786       .  S
O330      Al1605   1.784   1_545  S
O330      Al2893   1.784       .  S
O331        C332   1.265       .  A
O331      Al2889   1.922   1_455  S
C332       O1601   1.260       .  A
C332       C1237   1.476       .  S
C333        C568   1.485       .  S
Al334      O2894   1.924       .  S
O335       C1606   1.262   1_545  A
C336       O1611   1.261       .  A
C336       C1189   1.478       .  S
C337        O338   1.266       .  A
C337       O2892   1.260   1_455  A
C337       C1141   1.481       .  S
C339        C340   1.551       .  S
C339        C345   1.532       .  S
C339        C343   1.532       .  S
C339       C2032   1.542   1_545  S
C340        H347   1.081       .  S
C340        C341   1.376       .  D
C341        C342   1.542       .  S
C341        C505   1.503       .  S
C342        C346   1.538       .  S
C342        C344   1.548       .  S
C342        H348   1.102       .  S
C343        H349   1.086       .  S
C343        C344   1.361       .  D
C344        C517   1.480       .  S
C345        H350   1.087       .  S
C345        C346   1.363       .  D
C346        C496   1.490       .  S
C351        C352   1.535       .  S
C351        C357   1.530       .  S
C351        C355   1.547       .  S
C351       C3337   1.543       .  S
C352       H2927   1.085       .  S
C352        C353   1.365       .  D
C353        C354   1.548       .  S
C353        C469   1.484       .  S
C354        C358   1.539       .  S
C354        C356   1.549       .  S
C354        H360   1.110       .  S
C355       H2929   1.083       .  S
C355        C356   1.372       .  D
C356        C484   1.499       .  S
C357        H362   1.087       .  S
C357        C358   1.359       .  D
C358        C460   1.485       .  S
H359       C2920   1.085   1_455  S
H361       C2923   1.083   1_455  S
C363        C364   1.551       .  S
C363        C369   1.528       .  S
C363        C367   1.533       .  S
C363        C760   1.539       .  S
C364        H371   1.082       .  S
C364        C365   1.379       .  D
C365        C366   1.546       .  S
C365        C448   1.500       .  S
C366        C370   1.540       .  S
C366        C368   1.543       .  S
C366        H372   1.106       .  S
C367        H373   1.086       .  S
C367        C368   1.361       .  D
C368        C436   1.479       .  S
C369        H374   1.088       .  S
C369        C370   1.356       .  D
C370        C421   1.483       .  S
O375        C390   1.262       .  A
O375       Al383   1.905       .  S
C376        O386   1.259       .  A
C376        O377   1.259       .  A
C376        C424   1.491       .  S
O377       Al379   1.905       .  S
O378        C380   1.258       .  A
O378       Al379   1.901       .  S
Al379       O387   1.901       .  S
Al379       O389   1.919       .  S
Al379       O388   1.782       .  S
C380        O393   1.263       .  A
C380        C457   1.490       .  S
O381        C391   1.257       .  A
O381       Al383   1.885       .  S
O382        C395   1.263       .  A
O382       Al392   1.911       .  S
Al383       O396   1.906       .  S
Al383       O393   1.909       .  S
Al383       O388   1.783       .  S
O384        C391   1.261       .  A
O384       Al392   1.910       .  S
O385        C394   1.266       .  A
O385       Al392   1.913       .  S
O386       Al392   1.900       .  S
O387        C394   1.262       .  A
O388       Al392   1.783       .  S
O389        C390   1.266       .  A
C390        C880   1.497       .  S
C391        C493   1.462       .  S
C394        C832   1.496       .  S
C395        O396   1.259       .  A
C395        C784   1.494       .  S
C397        C544   1.492       .  S
C397        C398   1.415       .  A
C397        C402   1.407       .  A
C398        C628   1.482       .  S
C398        C399   1.404       .  A
C399        C400   1.406       .  A
C399        H404   1.085       .  S
C400        C433   1.491       .  S
C400        C401   1.414       .  A
C401        C472   1.481       .  S
C401        C402   1.403       .  A
C402        H403   1.085       .  S
C405        C553   1.483       .  S
C405        C406   1.411       .  A
C405        C410   1.403       .  A
C406        C589   1.483       .  S
C406        C407   1.403       .  A
C407        C408   1.403       .  A
C407        H412   1.085       .  S
C408        C445   1.485       .  S
C408        C409   1.413       .  A
C409        C520   1.484       .  S
C409        C410   1.404       .  A
C410        H411   1.085       .  S
C413        C616   1.489       .  S
C413        C414   1.415       .  A
C413        C418   1.406       .  A
C414        C580   1.485       .  S
C414        C415   1.406       .  A
C415        C416   1.402       .  A
C415        H420   1.085       .  S
C416        C481   1.483       .  S
C416        C417   1.411       .  A
C417        C508   1.482       .  S
C417        C418   1.404       .  A
C418        H419   1.084       .  S
C421        C422   1.402       .  A
C421        C426   1.408       .  A
C422        C423   1.396       .  A
C422        H431   1.084       .  S
C423        C424   1.419       .  A
C423        S427   1.803       .  S
C424        C425   1.410       .  A
C425        C426   1.402       .  A
C425        H432   1.083       .  S
C426        S428   1.797       .  S
S427        H430   1.408       .  S
S428        H429   1.405       .  S
C433        C434   1.404       .  A
C433        C438   1.416       .  A
C434        C435   1.399       .  A
C434        H443   1.077       .  S
C435        C436   1.408       .  A
C435        S439   1.798       .  S
C436        C437   1.401       .  A
C437        C438   1.399       .  A
C437        H444   1.083       .  S
C438        S440   1.804       .  S
S439        H442   1.404       .  S
S440        H441   1.407       .  S
C445        C446   1.399       .  A
C445        C450   1.411       .  A
C446        C447   1.405       .  A
C446        H455   1.083       .  S
C447        C448   1.420       .  A
C447        S451   1.801       .  S
C448        C449   1.407       .  A
C449        C450   1.398       .  A
C449        H456   1.084       .  S
C450        S452   1.804       .  S
S451        H454   1.407       .  S
S452        H453   1.405       .  S
C457        C458   1.404       .  A
C457        C462   1.422       .  A
C458        C459   1.392       .  A
C458        H467   1.084       .  S
C459        C460   1.413       .  A
C459        S463   1.801       .  S
C460        C461   1.401       .  A
C461        C462   1.406       .  A
C461        H468   1.084       .  S
C462        S464   1.801       .  S
S463        H466   1.401       .  S
S464        H465   1.408       .  S
C469        C470   1.404       .  A
C469        C474   1.414       .  A
C470        C471   1.400       .  A
C470        H479   1.084       .  S
C471        C472   1.416       .  A
C471        S475   1.810       .  S
C472        C473   1.402       .  A
C473        C474   1.401       .  A
C473        H480   1.084       .  S
C474        S476   1.800       .  S
S475        H478   1.402       .  S
S476        H477   1.404       .  S
C481        C482   1.401       .  A
C481        C486   1.414       .  A
C482        C483   1.403       .  A
C482        H491   1.083       .  S
C483        C484   1.419       .  A
C483        S487   1.808       .  S
C484        C485   1.403       .  A
C485        C486   1.402       .  A
C485        H492   1.077       .  S
C486        S488   1.806       .  S
S487        H490   1.407       .  S
S488        H489   1.403       .  S
C493        C494   1.399       .  A
C493        C498   1.404       .  A
C494        C495   1.402       .  A
C494        H503   1.083       .  S
C495        C496   1.416       .  A
C495        S499   1.801       .  S
C496        C497   1.409       .  A
C497        C498   1.395       .  A
C497        H504   1.084       .  S
C498        S500   1.801       .  S
S499        H502   1.406       .  S
S500        H501   1.406       .  S
C505        C506   1.411       .  A
C505        C510   1.420       .  A
C506        C507   1.402       .  A
C506        H515   1.084       .  S
C507        C508   1.409       .  A
C507        S511   1.804       .  S
C508        C509   1.395       .  A
C509        C510   1.399       .  A
C509        H516   1.078       .  S
C510        S512   1.800       .  S
S511        H514   1.405       .  S
S512        H513   1.407       .  S
C517        C518   1.400       .  A
C517        C522   1.416       .  A
C518        C519   1.397       .  A
C518        H527   1.082       .  S
C519        C520   1.412       .  A
C519        S523   1.804       .  S
C520        C521   1.403       .  A
C521        C522   1.401       .  A
C521        H528   1.083       .  S
C522        S524   1.807       .  S
S523        H526   1.406       .  S
S524        H525   1.399       .  S
C529        C530   1.402       .  A
C529        C534   1.409       .  A
C530        C531   1.395       .  A
C530        H539   1.083       .  S
C531        C532   1.413       .  A
C531       S3103   1.804   1_455  S
C532        C533   1.405       .  A
C533        C534   1.398       .  A
C533       H1824   1.084       .  S
C534       S1820   1.799       .  S
S535       C3099   1.804       .  S
S535        H538   1.407       .  S
S536       C1818   1.799   1_545  S
S536        H537   1.406   1_545  S
H540       C1817   1.084   1_545  S
C541       C3110   1.401       .  A
C541       C3114   1.409   1_455  A
C542        C543   1.402       .  A
C542       C3109   1.401       .  A
C542       H3119   1.083       .  S
C543        C544   1.414       .  A
C543        S547   1.808       .  S
C544        C545   1.406       .  A
C545        C546   1.401       .  A
C545        H552   1.081       .  S
C546       C3109   1.411       .  A
C546       S3116   1.800       .  S
S547        H550   1.407       .  S
S548       C3114   1.800       .  S
S548        H549   1.403       .  S
H551       C3110   1.083       .  S
C553        C554   1.399       .  A
C553        C558   1.407       .  A
C554        C555   1.404       .  A
C554        H563   1.082       .  S
C555       C1840   1.419   1_545  A
C555        S559   1.802   1_545  S
C556        C557   1.408       .  A
C556       C1839   1.420       .  A
C557       C1842   1.399       .  A
C557        H564   1.082       .  S
C558       C1841   1.401       .  A
C558        S560   1.807       .  S
S559       H1846   1.407   1_565  S
S560        H561   1.407       .  S
H562       S1843   1.407       .  S
C565        C566   1.409       .  A
C565        C570   1.417       .  A
C566        C567   1.398       .  A
C566        H575   1.084       .  S
C567        C568   1.411       .  A
C567        S571   1.800       .  S
C568        C569   1.406       .  A
C569        C570   1.403       .  A
C569        H576   1.082       .  S
C570        S572   1.806       .  S
S571        H574   1.408   1_455  S
S572        H573   1.406       .  S
C577        C578   1.410   1_455  A
C577       C3150   1.420   1_455  A
C578       C3147   1.404       .  A
C578        H587   1.082       .  S
C579        C580   1.407       .  A
C579       C3146   1.404       .  A
C579        S583   1.807       .  S
C580        C581   1.398       .  A
C581        C582   1.405       .  A
C581        H588   1.083       .  S
C582       C3145   1.422       .  A
C582        S584   1.799       .  S
S583        H586   1.407       .  S
S584       H3153   1.407       .  S
H585       S3152   1.407   1_655  S
C589        C590   1.403       .  A
C589        C594   1.412       .  A
C590        C591   1.403       .  A
C590        H599   1.084       .  S
C591        C592   1.417       .  A
C591        S595   1.807       .  S
C592        C593   1.399       .  A
C593        C594   1.397       .  A
C593        H600   1.080       .  S
C594        S596   1.805       .  S
S595        H598   1.399       .  S
S596        H597   1.405       .  S
C601        C602   1.408       .  A
C601        C606   1.414       .  A
C602        C603   1.396       .  A
C602        H611   1.084       .  S
C603        C604   1.406       .  A
C603       S1891   1.804       .  S
C604        C605   1.405       .  A
C605        C606   1.407       .  A
C605        H612   1.083       .  S
C606        S608   1.806       .  S
S607       C1887   1.804       .  S
S607        H610   1.407       .  S
S608        H609   1.407       .  S
C613       C1898   1.400       .  A
C613       C1902   1.412       .  A
C614        C615   1.402   1_565  A
C614       C1897   1.401       .  A
C614       H1907   1.084       .  S
C615        C616   1.417       .  A
C615        S619   1.804       .  S
C616        C617   1.403       .  A
C617        C618   1.401       .  A
C617        H624   1.084       .  S
C618       C1897   1.412   1_545  A
C618        S620   1.797       .  S
S619        H622   1.406       .  S
S620       H1905   1.403       .  S
H621       S1904   1.402       .  S
H623       C1898   1.083       .  S
C625        C626   1.404       .  A
C625        C630   1.414       .  A
C626        C627   1.403       .  A
C626        H635   1.082       .  S
C627        C628   1.412       .  A
C627        S631   1.804       .  S
C628        C629   1.402       .  A
C629        C630   1.397       .  A
C629        H636   1.085       .  S
C630        S632   1.805       .  S
S631        H634   1.405       .  S
S632        H633   1.406       .  S
C637        C638   1.403       .  A
C637        C642   1.423       .  A
C638        C639   1.399       .  A
C638        H647   1.083       .  S
C639        C640   1.412       .  A
C639       S3211   1.797       .  S
C640        C641   1.397       .  A
C641        C642   1.399       .  A
C641        H648   1.084       .  S
C642        S644   1.804       .  S
S643       C3207   1.798   1_455  S
S643        H646   1.405       .  S
S644        H645   1.399       .  S
C649        C650   1.408       .  A
C649       C3222   1.418       .  A
C650       C3219   1.395       .  A
C650        H659   1.084       .  S
C651        C652   1.414       .  A
C651       C3218   1.396       .  A
C651        S655   1.811       .  S
C652        C653   1.403       .  A
C653        C654   1.410   1_455  A
C653        H660   1.082       .  S
C654       C3217   1.419       .  A
C654        S656   1.804       .  S
S655        H658   1.402       .  S
S656       H3225   1.407       .  S
H657       S3224   1.406       .  S
C661        C662   1.401       .  A
C661       C1950   1.419       .  A
C662        C663   1.400       .  A
C662        H671   1.083       .  S
C663       C1948   1.413       .  A
C663        S667   1.793       .  S
C664        C665   1.400       .  A
C664       C1947   1.413   1_545  A
C665        C666   1.400       .  A
C665        H672   1.084       .  S
C666       C1945   1.418   1_545  A
C666        S668   1.806       .  S
S667       H1954   1.403       .  S
S668       H1953   1.404   1_545  S
H669       S1952   1.403       .  S
H670       S1951   1.403   1_545  S
C673        C674   1.409       .  A
C673        C678   1.412       .  A
C674        C675   1.397       .  A
C674        H683   1.084       .  S
C675        C676   1.407       .  A
C675        S679   1.804       .  S
C676        C677   1.403       .  A
C677        C678   1.402       .  A
C677        H684   1.083       .  S
C678        S680   1.806       .  S
S679        H682   1.407       .  S
S680        H681   1.407       .  S
C685        C686   1.406       .  A
C685        C690   1.414       .  A
C686       C3255   1.400   1_455  A
C686        H695   1.084       .  S
C687        C688   1.412       .  A
C687       C3254   1.400       .  A
C687        S691   1.804       .  S
C688       C3257   1.404       .  A
C689        C690   1.408       .  A
C689       C3256   1.404   1_455  A
C689        H696   1.083       .  S
C690        S692   1.802       .  S
S691        H694   1.403       .  S
S692        H693   1.407       .  S
C697        C698   1.402       .  A
C697        C702   1.413       .  A
C698        C699   1.399       .  A
C698        H707   1.084       .  S
C699        C700   1.416       .  A
C699        S703   1.805       .  S
C700        C701   1.405       .  A
C701        C702   1.405       .  A
C701        H708   1.081       .  S
C702        S704   1.801       .  S
S703        H706   1.407       .  S
S704        H705   1.405       .  S
C709        C710   1.400       .  A
C709        C714   1.417       .  A
C710        C711   1.398       .  A
C710        H719   1.084       .  S
C711        C712   1.412       .  A
C711        S715   1.796   1_545  S
C712        C713   1.400       .  A
C713        C714   1.396       .  A
C713        H720   1.084       .  S
C714        S716   1.806       .  S
S715       H2002   1.405       .  S
S716        H717   1.403       .  S
H718       S1999   1.405       .  S
C721        C722   1.411       .  A
C721        C726   1.425       .  A
C722       C2007   1.395   1_545  A
C722        H731   1.082       .  S
C723        C724   1.412       .  A
C723       C2006   1.396       .  A
C723        S727   1.810       .  S
C724        C725   1.401       .  A
C725       C2010   1.406       .  A
C725        H732   1.084       .  S
C726       C2009   1.407   1_545  A
C726        S728   1.797       .  S
S727        H730   1.404       .  S
S728        H729   1.392       .  S
C733        C734   1.403       .  A
C733        C738   1.415       .  A
C734        C735   1.404       .  A
C734        H743   1.083       .  S
C735        C736   1.416       .  A
C735        S739   1.797       .  S
C736        C737   1.407       .  A
C737        C738   1.399       .  A
C737        H744   1.084       .  S
C738        S740   1.810       .  S
S739        H742   1.406       .  S
S740        H741   1.399       .  S
C745        C746   1.397       .  A
C745        C750   1.407       .  A
C746        C747   1.400       .  A
C746        H755   1.083       .  S
C747        C748   1.427       .  A
C747       S2035   1.812       .  S
C748       C1623   1.540       .  S
C748        C749   1.414       .  A
C749        C750   1.401       .  A
C749        H756   1.076       .  S
C750        S752   1.804       .  S
S751       C2031   1.812       .  S
S751        H754   1.406       .  S
S752        H753   1.407       .  S
C757        C758   1.397       .  A
C757        C762   1.410       .  A
C758        C759   1.400       .  A
C758        H767   1.083       .  S
C759        C760   1.429       .  A
C759        S763   1.813       .  S
C760        C761   1.412       .  A
C761        C762   1.403       .  A
C761        H768   1.077       .  S
C762        S764   1.801       .  S
S763        H766   1.407       .  S
S764        H765   1.407       .  S
C769       C2919   1.544   1_455  S
C769        C770   1.414       .  A
C769        C774   1.425       .  A
C770        C771   1.405       .  A
C770        H779   1.076       .  S
C771        C772   1.415       .  A
C771        S775   1.809       .  S
C772        C773   1.405       .  A
C773        C774   1.404       .  A
C773        H780   1.082       .  S
C774        S776   1.812       .  S
S775        H778   1.407       .  S
S776       H3345   1.406       .  S
H777       S3344   1.406       .  S
C781        C782   1.409       .  A
C781        C786   1.423       .  A
C782        C783   1.395       .  A
C782        H791   1.084       .  S
C783        C784   1.418       .  A
C783        S787   1.802       .  S
C784        C785   1.406       .  A
C785        C786   1.406       .  A
C785        H792   1.084       .  S
C786        S788   1.798       .  S
S787        H790   1.408       .  S
S788        H789   1.408       .  S
C793        C794   1.410       .  A
C793        C798   1.414       .  A
C794        C795   1.399       .  A
C794        H803   1.082       .  S
C795        C796   1.410       .  A
C795        S799   1.810       .  S
C796        C797   1.403       .  A
C797        C798   1.401       .  A
C797        H804   1.079       .  S
C798        S800   1.807       .  S
S799        H802   1.406       .  S
S800        H801   1.407       .  S
C805        C806   1.399       .  A
C805        C810   1.416       .  A
C806        C807   1.399       .  A
C806        H815   1.081       .  S
C807        C808   1.415       .  A
C807        S811   1.809       .  S
C808        C809   1.401       .  A
C809        C810   1.399       .  A
C809        H816   1.084       .  S
C810        S812   1.805       .  S
S811        H814   1.402       .  S
S812        H813   1.403       .  S
C817        C818   1.402       .  A
C817        C822   1.409       .  A
C818        C819   1.401       .  A
C818        H827   1.084       .  S
C819        C820   1.415       .  A
C819        S823   1.804       .  S
C820        C821   1.403       .  A
C821        C822   1.405       .  A
C821        H828   1.079       .  S
C822        S824   1.804       .  S
S823        H826   1.406       .  S
S824        H825   1.407       .  S
C829        C830   1.413       .  A
C829        C834   1.424       .  A
C830        C831   1.408       .  A
C830        H839   1.075       .  S
C831        C832   1.415       .  A
C831        S835   1.810       .  S
C832        C833   1.404       .  A
C833        C834   1.400       .  A
C833        H840   1.082       .  S
C834        S836   1.811       .  S
S835        H838   1.406       .  S
S836        H837   1.406       .  S
C841        C842   1.400       .  A
C841        C846   1.417       .  A
C842        C843   1.405       .  A
C842        H851   1.083       .  S
C843        C844   1.417       .  A
C843        S847   1.806       .  S
C844        C845   1.402       .  A
C845        C846   1.396       .  A
C845        H852   1.084       .  S
C846        S848   1.806       .  S
S847        H850   1.407       .  S
S848        H849   1.397       .  S
C853        C854   1.404       .  A
C853        C858   1.420       .  A
C854        C855   1.402       .  A
C854        H863   1.081       .  S
C855        C856   1.414       .  A
C855        S859   1.794       .  S
C856        C857   1.401       .  A
C857        C858   1.399       .  A
C857        H864   1.084       .  S
C858        S860   1.806       .  S
S859        H862   1.402       .  S
S860        H861   1.406       .  S
C865        C866   1.409       .  A
C865        C870   1.419       .  A
C866        C867   1.401       .  A
C866        H875   1.084       .  S
C867        C868   1.410       .  A
C867        S871   1.804       .  S
C868        C869   1.401       .  A
C869        C870   1.408       .  A
C869        H876   1.080       .  S
C870        S872   1.801       .  S
S871        H874   1.406       .  S
S872        H873   1.407       .  S
C877        C878   1.414       .  A
C877        C882   1.425       .  A
C878        C879   1.410       .  A
C878        H887   1.075       .  S
C879        C880   1.415       .  A
C879        S883   1.809       .  S
C880        C881   1.403       .  A
C881        C882   1.401       .  A
C881        H888   1.081       .  S
C882        S884   1.813       .  S
S883        H886   1.407       .  S
S884        H885   1.406       .  S
C889        C890   1.399       .  A
C889        C894   1.414       .  A
C890        C891   1.397       .  A
C890        H899   1.083       .  S
C891        C892   1.419       .  A
C891        S895   1.801       .  S
C892        C893   1.404       .  A
C893        C894   1.400       .  A
C893        H900   1.082       .  S
C894        S896   1.808       .  S
S895        H898   1.407       .  S
S896        H897   1.406       .  S
C901        C902   1.399       .  A
C901        C906   1.415       .  A
C902        C903   1.397       .  A
C902        H911   1.083       .  S
C903        C904   1.415       .  A
C903        S907   1.806       .  S
C904        C905   1.404       .  A
C905        C906   1.403       .  A
C905        H912   1.084       .  S
C906        S908   1.807       .  S
S907        H910   1.402       .  S
S908        H909   1.400       .  S
C913        C914   1.404       .  A
C913        C918   1.412       .  A
C914        C915   1.400       .  A
C914        H923   1.084       .  S
C915        C916   1.417       .  A
C915        S919   1.803       .  S
C916        C917   1.409       .  A
C917        C918   1.406       .  A
C917        H924   1.082       .  S
C918        S920   1.802       .  S
S919       H3490   1.404       .  S
S920        H921   1.405       .  S
H922       S3487   1.403       .  S
C925        C926   1.405       .  A
C925        C930   1.412       .  A
C926        C927   1.401       .  A
C926        H935   1.081       .  S
C927        C928   1.424       .  A
C927        S931   1.811       .  S
C928        C929   1.416       .  A
C929        C930   1.403       .  A
C929        H936   1.074       .  S
C930        S932   1.802       .  S
S931        H934   1.406       .  S
S932        H933   1.408       .  S
C937        C938   1.403       .  A
C937        C942   1.411       .  A
C938        C939   1.408       .  A
C938        H947   1.084       .  S
C939        C940   1.422       .  A
C939        S943   1.799       .  S
C940        C941   1.410       .  A
C941        C942   1.394       .  A
C941        H948   1.084       .  S
C942        S944   1.801       .  S
S943        H946   1.408       .  S
S944        H945   1.407       .  S
C949        C950   1.398       .  A
C949        C954   1.407       .  A
C950        C951   1.399       .  A
C950        H959   1.083       .  S
C951        C952   1.427       .  A
C951        S955   1.813       .  S
C952        C953   1.413       .  A
C953        C954   1.401       .  A
C953        H960   1.076       .  S
C954        S956   1.803       .  S
S955        H958   1.407       .  S
S956        H957   1.407       .  S
C961        C962   1.412       .  A
C961        C966   1.426       .  A
C962        C963   1.401       .  A
C962        H971   1.077       .  S
C963        C964   1.410       .  A
C963       S2251   1.803   1_545  S
C964        C965   1.399       .  A
C965        C966   1.399       .  A
C965        H972   1.083       .  S
C966        S968   1.813       .  S
S967       C2247   1.804       .  S
S967        H970   1.407       .  S
S968        H969   1.407       .  S
C973        C974   1.408       .  A
C973        C978   1.412       .  A
C974        C975   1.397       .  A
C974        H983   1.084       .  S
C975        C976   1.412       .  A
C975        S979   1.799       .  S
C976        C977   1.409       .  A
C977        C978   1.402       .  A
C977        H984   1.082       .  S
C978        S980   1.806       .  S
S979        H982   1.407       .  S
S980        H981   1.407       .  S
C985        C986   1.402       .  A
C985        C990   1.412       .  A
C986        C987   1.401       .  A
C986        H995   1.085       .  S
C987        C988   1.416       .  A
C987       S3559   1.804       .  S
C988        C989   1.404       .  A
C989        C990   1.399       .  A
C989        H996   1.084   1_554  S
C990        S992   1.803       .  S
S991       C3555   1.805       .  S
S991        H994   1.403   1_655  S
S992        H993   1.403       .  S
C997        C998   1.409       .  A
C997       C1002   1.424       .  A
C998        C999   1.395       .  A
C998       H1007   1.084       .  S
C999       C1000   1.413       .  A
C999       S1003   1.800       .  S
C1000      C1001   1.403       .  A
C1001      C1002   1.408       .  A
C1001      H1008   1.084       .  S
C1002      S1004   1.800       .  S
S1003      H1006   1.405       .  S
S1004      H1005   1.408       .  S
C1009      C1010   1.406       .  A
C1009      C1014   1.421       .  A
C1010      C1011   1.400       .  A
C1010      H1019   1.084       .  S
C1011      C1012   1.415       .  A
C1011      S1015   1.804       .  S
C1012      C1013   1.399       .  A
C1013      C1014   1.402       .  A
C1013      H1020   1.084       .  S
C1014      S1016   1.797       .  S
S1015      H1018   1.407       .  S
S1016      H1017   1.407       .  S
C1021      C1022   1.410       .  A
C1021      C1026   1.422       .  A
C1022      C1023   1.403       .  A
C1022      H1031   1.082       .  S
C1023      C1024   1.407       .  A
C1023      S1027   1.806       .  S
C1024      C1025   1.400       .  A
C1025      C1026   1.408       .  A
C1025      H1032   1.083       .  S
C1026      S1028   1.799       .  S
S1027      H1030   1.407       .  S
S1028      H1029   1.407       .  S
C1033      C1034   1.401       .  A
C1033      C1038   1.414       .  A
C1034      C1035   1.401       .  A
C1034      H1043   1.079       .  S
C1035      C1036   1.412       .  A
C1035      S1039   1.805   1_554  S
C1036      C1037   1.404       .  A
C1037      C1038   1.402       .  A
C1037      H1044   1.080       .  S
C1038      S1040   1.804       .  S
S1039      H1042   1.404       .  S
S1040      H1041   1.403       .  S
C1045      C1046   1.415       .  A
C1045      C1050   1.423       .  A
C1046      C1047   1.411       .  A
C1046      H1055   1.074       .  S
C1047      C1048   1.415       .  A
C1047      S1051   1.809   1_545  S
C1048      C1049   1.404       .  A
C1049      C1050   1.395       .  A
C1049      H1056   1.081       .  S
C1050      S1052   1.814       .  S
S1051      H2338   1.406       .  S
S1052      H1053   1.406       .  S
H1054      S2335   1.407       .  S
C1057      C1058   1.398       .  A
C1057      C1062   1.412       .  A
C1058      C1059   1.397       .  A
C1058      H1067   1.084       .  S
C1059      C1060   1.420       .  A
C1059      S1063   1.801       .  S
C1060      C1061   1.405       .  A
C1061      C1062   1.395       .  A
C1061      H1068   1.084       .  S
C1062      S1064   1.805       .  S
S1063      H1066   1.407       .  S
S1064      H1065   1.407       .  S
C1069      C1070   1.405       .  A
C1069      C1074   1.413       .  A
C1070      C1071   1.404       .  A
C1070      H1079   1.084       .  S
C1071      C1072   1.417       .  A
C1071      S1075   1.807       .  S
C1072      C1073   1.400       .  A
C1073      C1074   1.397       .  A
C1073      H1080   1.083       .  S
C1074      S1076   1.804   1_554  S
S1075      H1078   1.398       .  S
S1076      H1077   1.406       .  S
C1081      C1082   1.400       .  A
C1081      C1086   1.415       .  A
C1082      C1083   1.400       .  A
C1082      H1091   1.079       .  S
C1083      C1084   1.415       .  A
C1083      S1087   1.809   1_554  S
C1084      C1085   1.402       .  A
C1085      C1086   1.400       .  A
C1085      H1092   1.084       .  S
C1086      S1088   1.804       .  S
S1087      H1090   1.401       .  S
S1088      H1089   1.406       .  S
C1093      C1094   1.410       .  A
C1093      C1098   1.420       .  A
C1094      C1095   1.399       .  A
C1094      H1103   1.084       .  S
C1095      C1096   1.408       .  A
C1095      S2383   1.804   1_545  S
C1096      C1097   1.396       .  A
C1097      C1098   1.400       .  A
C1097      H1104   1.078       .  S
C1098      S1100   1.802       .  S
S1099      C2379   1.804       .  S
S1099      H1102   1.406       .  S
S1100      H1101   1.407       .  S
C1105      C1106   1.405       .  A
C1105      C1110   1.419       .  A
C1106      C1107   1.408       .  A
C1106      H1115   1.084       .  S
C1107      C1108   1.424       .  A
C1107      S1111   1.798       .  S
C1108      C1109   1.408       .  A
C1109      C1110   1.393       .  A
C1109      H1116   1.085       .  S
C1110      S1112   1.804       .  S
S1111      H1114   1.408       .  S
S1112      H1113   1.408       .  S
C1117      C1118   1.401       .  A
C1117      C1122   1.410       .  A
C1118      C1119   1.403       .  A
C1118      H1127   1.082       .  S
C1119      C1120   1.426       .  A
C1119      S1123   1.812       .  S
C1120      C1121   1.416       .  A
C1121      C1122   1.406       .  A
C1121      H1128   1.074       .  S
C1122      S1124   1.804       .  S
S1123      H1126   1.407       .  S
S1124      H1125   1.407       .  S
C1129      C1130   1.404       .  A
C1129      C1134   1.414       .  A
C1130      C1131   1.398       .  A
C1130      H1139   1.082       .  S
C1131      C1132   1.423       .  A
C1131      S1135   1.814       .  S
C1132      C1133   1.412       .  A
C1133      C1134   1.403       .  A
C1133      H1140   1.077       .  S
C1134      S1136   1.803       .  S
S1135      H1138   1.406       .  S
S1136      H1137   1.408       .  S
C1141      C1142   1.397       .  A
C1141      C1146   1.407       .  A
C1142      C1143   1.401       .  A
C1142      H1151   1.083   1_455  S
C1143      C1144   1.428       .  A
C1143      S1147   1.811       .  S
C1144      C1145   1.414       .  A
C1145      C1146   1.408       .  A
C1145      H1152   1.074       .  S
C1146      S1148   1.807       .  S
S1147      H1150   1.406   1_455  S
S1148      H1149   1.407       .  S
C1153      C1154   1.403       .  A
C1153      C1158   1.413       .  A
C1154      C1155   1.404       .  A
C1154      H1163   1.084       .  S
C1155      C1156   1.420       .  A
C1155      S1159   1.801       .  S
C1156      C1157   1.406       .  A
C1157      C1158   1.397       .  A
C1157      H1164   1.082       .  S
C1158      S1160   1.808       .  S
S1159      H1162   1.406       .  S
S1160      H1161   1.406       .  S
C1165      C1166   1.407       .  A
C1165      C1170   1.421       .  A
C1166      C1167   1.399       .  A
C1166      H1175   1.084       .  S
C1167      C1168   1.411       .  A
C1167      S1171   1.805       .  S
C1168      C1169   1.399       .  A
C1169      C1170   1.405       .  A
C1169      H1176   1.083       .  S
C1170      S1172   1.802       .  S
S1171      H1174   1.405       .  S
S1172      H1173   1.406       .  S
C1177      C1178   1.406       .  A
C1177      C1182   1.421       .  A
C1178      C1179   1.398       .  A
C1178      H3755   1.074       .  S
C1179      C1180   1.406       .  A
C1179      S1183   1.797       .  S
C1180      C1181   1.402       .  A
C1181      C1182   1.402       .  A
C1181      H1188   1.084       .  S
C1182      S1184   1.807   1_556  S
S1183      H1186   1.404       .  S
S1184      H1185   1.403       .  S
H1187      C3746   1.074       .  S
C1189      C1190   1.398       .  A
C1189      C1194   1.408       .  A
C1190      C1191   1.402       .  A
C1190      H1199   1.083       .  S
C1191      C1192   1.427       .  A
C1191      S1195   1.813       .  S
C1192      C1193   1.414       .  A
C1193      C1194   1.401       .  A
C1193      H1200   1.075       .  S
C1194      S2480   1.804       .  S
S1195      H1198   1.406       .  S
S1196      C2478   1.804   1_545  S
S1196      H1197   1.407       .  S
C1201      C1202   1.409       .  A
C1201      C1206   1.416       .  A
C1202      C1203   1.403       .  A
C1202      H1211   1.083       .  S
C1203      C1204   1.410       .  A
C1203      S1207   1.806       .  S
C1204      C1205   1.404       .  A
C1205      C1206   1.399       .  A
C1205      H1212   1.083       .  S
C1206      S1208   1.811       .  S
S1207      H1210   1.407       .  S
S1208      H1209   1.407       .  S
C1213      C1214   1.399       .  A
C1213      C1218   1.411       .  A
C1214      C1215   1.398       .  A
C1214      H1223   1.083       .  S
C1215      C1216   1.415       .  A
C1215      S1219   1.803   1_556  S
C1216      C1217   1.407       .  A
C1217      C1218   1.404       .  A
C1217      H1224   1.082       .  S
C1218      S1220   1.798       .  S
S1219      H1222   1.407       .  S
S1220      H1221   1.404       .  S
C1225      C1226   1.408       .  A
C1225      C1230   1.413       .  A
C1226      C1227   1.399       .  A
C1226      H1235   1.084       .  S
C1227      C1228   1.412       .  A
C1227      S2515   1.805       .  S
C1228      C1229   1.402       .  A
C1229      C1230   1.402       .  A
C1229      H1236   1.080       .  S
C1230      S1232   1.800       .  S
S1231      C2511   1.809   1_545  S
S1231      H1234   1.398       .  S
S1232      H1233   1.407       .  S
C1237      C1238   1.401       .  A
C1237      C1242   1.408       .  A
C1238      C1239   1.405       .  A
C1238      H1247   1.084   1_455  S
C1239      C1240   1.426       .  A
C1239      S1243   1.798       .  S
C1240      C1241   1.411       .  A
C1241      C1242   1.393       .  A
C1241      H1248   1.084       .  S
C1242      S1244   1.800       .  S
S1243      H1246   1.408       .  S
S1244      H1245   1.407       .  S
C1249      C1250   1.400       .  A
C1249      C1254   1.412       .  A
C1250      C1251   1.400       .  A
C1250      H1259   1.084       .  S
C1251      C1252   1.421       .  A
C1251      S1255   1.800       .  S
C1252      C1253   1.406       .  A
C1253      C1254   1.395       .  A
C1253      H1260   1.084       .  S
C1254      S1256   1.806       .  S
S1255      H1258   1.406       .  S
S1256      H1257   1.407       .  S
C1261      C1262   1.404       .  A
C1261      C1266   1.410       .  A
C1262      C1263   1.398       .  A
C1262      H3839   1.084       .  S
C1263      C1264   1.411       .  A
C1263      S1267   1.804       .  S
C1264      C1265   1.400       .  A
C1265      C1266   1.397       .  A
C1265      H1272   1.079       .  S
C1266      S1268   1.802   1_556  S
S1267      H1270   1.404       .  S
S1268      H1269   1.401       .  S
H1271      C3830   1.082       .  S
C1273      C1274   1.410       .  A
C1273      C1278   1.419       .  A
C1274      C1275   1.398       .  A
C1274      H1283   1.084       .  S
C1275      C1276   1.412       .  A
C1275      S2563   1.809       .  S
C1276      C1277   1.398       .  A
C1277      C1278   1.401       .  A
C1277      H1284   1.080       .  S
C1278      S1280   1.800       .  S
S1279      C2559   1.800   1_545  S
S1279      H1282   1.399       .  S
S1280      H1281   1.407       .  S
C1285      C1286   1.540       .  S
C1285      C1291   1.536       .  S
C1285      C1289   1.542       .  S
C1285      C2524   1.545       .  S
C1286      H1293   1.076       .  S
C1286      C1287   1.364       .  D
C1287      C1288   1.544       .  S
C1287      C2548   1.478       .  S
C1288      C1292   1.538       .  S
C1288      C1290   1.543       .  S
C1288      H1294   1.107       .  S
C1289      H1295   1.086       .  S
C1289      C1290   1.374       .  D
C1290      C2557   1.504       .  S
C1291      H1296   1.087       .  S
C1291      C1292   1.360       .  D
C1292      C2533   1.483       .  S
C1297      C1298   1.546       .  S
C1297      C1303   1.531       .  S
C1297      C1301   1.535       .  S
C1297      C2476   1.541       .  S
C1298      H1305   1.080       .  S
C1298      C1299   1.374       .  D
C1299      C1300   1.547       .  S
C1299      C2509   1.500       .  S
C1300      C1304   1.539       .  S
C1300      C1302   1.542       .  S
C1300      H1306   1.107       .  S
C1301      H1307   1.086       .  S
C1301      C1302   1.363       .  D
C1302      C2497   1.477       .  S
C1303      H1308   1.087       .  S
C1303      C1304   1.361       .  D
C1304      C2488   1.487       .  S
C1309      C1310   1.548       .  S
C1309      C1315   1.528       .  S
C1309      C1313   1.536       .  S
C1309      C2428   1.542       .  S
C1310      H1317   1.082       .  S
C1310      C1311   1.377       .  D
C1311      C1312   1.546       .  S
C1311      C2449   1.502       .  S
C1312      C1316   1.541       .  S
C1312      C1314   1.543       .  S
C1312      H1318   1.107       .  S
C1313      H1319   1.086       .  S
C1313      C1314   1.363       .  D
C1314      C2464   1.481       .  S
C1315      H1320   1.086       .  S
C1315      C1316   1.358       .  D
C1316      C2437   1.487       .  S
O1321      C1336   1.262       .  A
O1321     Al1329   1.900       .  S
C1322      O1332   1.257       .  A
C1322      O1323   1.259       .  A
C1322      C2440   1.486       .  S
O1323     Al1325   1.896       .  S
O1324      C1326   1.257       .  A
O1324     Al1325   1.896       .  S
Al1325     O1333   1.884       .  S
Al1325     O1335   1.907       .  S
Al1325     O1334   1.780       .  S
C1326      O1339   1.262       .  A
C1326      C2536   1.486       .  S
O1327      C1337   1.261       .  A
O1327     Al1329   1.889       .  S
O1328      C1341   1.264       .  A
O1328     Al1338   1.917       .  S
Al1329     O1342   1.894       .  S
Al1329     O1339   1.910       .  S
Al1329     O1334   1.780       .  S
O1330      C1337   1.263       .  A
O1330     Al1338   1.915       .  S
O1331      C1340   1.268       .  A
O1331     Al1338   1.930       .  S
O1332     Al1338   1.902       .  S
O1333      C1340   1.260       .  A
O1334     Al1338   1.785       .  S
O1335      C1336   1.264       .  A
C1336      C2413   1.490       .  S
C1337      C2485   1.486       .  S
C1340      C2401   1.480       .  S
C1341      O1342   1.258       .  A
C1341      C2389   1.492       .  S
C1343      C2560   1.487       .  S
C1343      C1344   1.418       .  A
C1344      C2512   1.484       .  S
C1345      C1346   1.401   1_556  A
C1345      H1350   1.085       .  S
C1346      C2368   1.474       .  S
C1346      C1347   1.410       .  A
C1347      C2380   1.481       .  S
C1347      C1348   1.401   1_554  A
C1348      H1349   1.085       .  S
C1351      C1352   1.536       .  S
C1351      C1357   1.532       .  S
C1351      C1355   1.550       .  S
C1351      C2329   1.541       .  S
C1352      H1359   1.086       .  S
C1352      C1353   1.362       .  D
C1353      C1354   1.541       .  S
C1353      C2356   1.476       .  S
C1354      C1358   1.531       .  S
C1354      C1356   1.542       .  S
C1354      H1360   1.106       .  S
C1355      H1361   1.081       .  S
C1355      C1356   1.379       .  D
C1356      C2377   1.502       .  S
C1357      H1362   1.087       .  S
C1357      C1358   1.357       .  D
C1358      C2341   1.475       .  S
C1363      C1364   1.538       .  S
C1363      C1369   1.537       .  S
C1363      C1367   1.543       .  S
C1363      C2281   1.550       .  S
C1364      H1371   1.075       .  S
C1364      C1365   1.365       .  D
C1365      C1366   1.546       .  S
C1365      C2317   1.485       .  S
C1366      C1370   1.538       .  S
C1366      C1368   1.546       .  S
C1366      H1372   1.105       .  S
C1367      H1373   1.086       .  S
C1367      C1368   1.379       .  D
C1368      C2305   1.512       .  S
C1369      H1374   1.087       .  S
C1369      C1370   1.359       .  D
C1370      C2296   1.484       .  S
C1375      C1376   1.547       .  S
C1375      C1381   1.532       .  S
C1375      C1379   1.534       .  S
C1375      C2245   1.536       .  S
C1376      H1383   1.081       .  S
C1376      C1377   1.371       .  D
C1377      C1378   1.540       .  S
C1377      C2365   1.483       .  S
C1378      C1382   1.541       .  S
C1378      C1380   1.538       .  S
C1378      H1384   1.110       .  S
C1379      H1385   1.086       .  S
C1379      C1380   1.362       .  D
C1380      C2269   1.476       .  S
C1381      H1386   1.087       .  S
C1381      C1382   1.360       .  D
C1382      C2257   1.488       .  S
O1387      C1402   1.262       .  A
O1387     Al1395   1.905       .  S
C1388      O1398   1.252       .  A
C1388      O1389   1.261       .  A
C1388      C2344   1.483       .  S
O1389     Al1391   1.912       .  S
O1390      C1392   1.258       .  A
O1390     Al1391   1.878       .  S
Al1391     O1399   1.884       .  S
Al1391     O1401   1.901       .  S
Al1391     O1400   1.779       .  S
C1392      O1405   1.264       .  A
C1392      C2260   1.488       .  S
O1393      C1403   1.259       .  A
O1393     Al1395   1.893       .  S
O1394      C1407   1.257       .  A
O1394     Al1404   1.884       .  S
Al1395     O1408   1.932       .  S
Al1395     O1405   1.930       .  S
Al1395     O1400   1.785       .  S
O1396      C1403   1.265       .  A
O1396     Al1404   1.923       .  S
O1397      C1406   1.266       .  A
O1397     Al1404   1.928       .  S
O1398     Al1404   1.877       .  S
O1399      C1406   1.259       .  A
O1400     Al1404   1.778       .  S
O1401      C1402   1.263       .  A
C1402      C2209   1.492       .  S
C1403      C2293   1.491       .  S
C1406      C2233   1.480       .  S
C1407      O1408   1.265       .  A
C1407      C2221   1.476       .  S
C1409      C2461   1.490       .  S
C1409      C1410   1.418       .  A
C1409      C3982   1.404   1_455  A
C1410      C2545   1.482       .  S
C1410      C3979   1.403   1_455  A
C1411      C3978   1.403       .  A
C1411      C1412   1.400   1_556  A
C1411      H1416   1.085       .  S
C1412      C2320   1.480       .  S
C1412      C1413   1.414       .  A
C1413      C2272   1.485       .  S
C1413      C1414   1.405   1_554  A
C1414      C3977   1.404       .  A
C1414      H1415   1.085       .  S
C1417      C2452   1.486       .  S
C1417      C1418   1.413       .  A
C1417      C1422   1.403       .  A
C1418      C2500   1.487       .  S
C1418      C1419   1.407       .  A
C1419      C1420   1.404   1_556  A
C1419      H1424   1.084       .  S
C1420      C2308   1.490       .  S
C1420      C1421   1.413       .  A
C1421      C2353   1.483       .  S
C1421      C1422   1.406   1_554  A
C1422      H1423   1.085       .  S
C1425      C3994   1.535       .  S
C1425      C3999   1.532       .  S
C1425      C3997   1.555       .  S
C1425      C2161   1.546       .  S
C1426      C3993   1.532   1_455  S
C1426      H4001   1.086   1_455  S
C1426      C1427   1.363       .  D
C1427      C1428   1.544       .  S
C1427      C2185   1.481       .  S
C1428      C1432   1.542       .  S
C1428      C1430   1.542       .  S
C1428      H1434   1.110       .  S
C1429      C3993   1.555   1_455  S
C1429      H4003   1.080   1_455  S
C1429      C1430   1.377       .  D
C1430      C2200   1.504       .  S
C1431      C3993   1.531   1_455  S
C1431      H1436   1.086       .  S
C1431      C1432   1.360       .  D
C1432      C2173   1.485       .  S
H1433      C3994   1.086       .  S
H1435      C3997   1.081       .  S
C1437      C1438   1.543       .  S
C1437      C1443   1.528       .  S
C1437      C1441   1.548       .  S
C1437      C2113   1.547       .  S
C1438      H1445   1.086       .  S
C1438      C1439   1.372       .  D
C1439      C1440   1.549       .  S
C1439      C2140   1.494       .  S
C1440      C1444   1.543       .  S
C1440      C1442   1.548       .  S
C1440      H1446   1.108       .  S
C1441      H1447   1.081       .  S
C1441      C1442   1.373       .  D
C1442      C2149   1.505       .  S
C1443      H1448   1.088       .  S
C1443      C1444   1.352       .  D
C1444      C2125   1.475       .  S
C1449      C1450   1.534       .  S
C1449      C1453   1.545       .  S
C1449      C2065   1.543       .  S
C1450      H1457   1.087       .  S
C1451      C1452   1.543       .  S
C1451      C2089   1.484       .  S
C1452      C1456   1.544       .  S
C1452      C1454   1.540       .  S
C1452      H1458   1.109       .  S
C1453      H1459   1.076       .  S
C1454      C2104   1.490       .  S
C1455      H1460   1.087   1_565  S
C1455      C1456   1.367       .  D
C1456      C2077   1.496       .  S
O1461      C1476   1.265       .  A
O1461     Al1469   1.899       .  S
C1462      O1472   1.258       .  A
C1462      O1463   1.260       .  A
C1462      C2128   1.488       .  S
O1463     Al1465   1.921       .  S
O1464      C1466   1.258       .  A
O1464     Al1465   1.903       .  S
Al1465     O1473   1.901       .  S
Al1465     O1475   1.919       .  S
Al1465     O1474   1.784       .  S
C1466      O1479   1.257       .  A
C1466      C2080   1.489       .  S
O1467      C1477   1.259       .  A
O1467     Al1469   1.889       .  S
O1468      C1481   1.259       .  A
O1468     Al1478   1.906       .  S
Al1469     O1482   1.913       .  S
Al1469     O1479   1.910       .  S
Al1469     O1474   1.788       .  S
O1470      C1477   1.266       .  A
O1470     Al1478   1.919       .  S
O1471      C1480   1.263       .  A
O1471     Al1478   1.913       .  S
O1472     Al1478   1.882       .  S
O1473      C1480   1.263       .  A
O1474     Al1478   1.783       .  S
O1475      C1476   1.266       .  A
C1476      C2029   1.479       .  S
C1477      C2176   1.485       .  S
C1480      C2041   1.484       .  S
C1481      O1482   1.262       .  A
C1481      C2056   1.498       .  S
C1483      C1484   1.544       .  S
C1483      C1489   1.528       .  S
C1483      C1487   1.536       .  S
C1483      C2236   1.540       .  S
C1484      H1491   1.082       .  S
C1484      C1485   1.367       .  D
C1485      C1486   1.550       .  S
C1485      C2017   1.487       .  S
C1486      C1490   1.540       .  S
C1486      C1488   1.552       .  S
C1486      H1492   1.106       .  S
C1487      H1493   1.085       .  S
C1487      C1488   1.376       .  D
C1488      C2005   1.510       .  S
C1489      H1494   1.087       .  S
C1489      C1490   1.355       .  D
C1490      C1993   1.481       .  S
C1495      C1496   1.542       .  S
C1495      C1501   1.537       .  S
C1495      C1499   1.534       .  S
C1495      C2224   1.541       .  S
C1496      H1503   1.079       .  S
C1496      C1497   1.369       .  D
C1497      C1498   1.542       .  S
C1497      C1972   1.480       .  S
C1498      C1502   1.537       .  S
C1498      C1500   1.544       .  S
C1498      H1504   1.110       .  S
C1499      H1505   1.086       .  S
C1499      C1500   1.370       .  D
C1500      C1984   1.493       .  S
C1501      H1506   1.087       .  S
C1501      C1502   1.358       .  D
C1502      C1957   1.478       .  S
C1507      C1508   1.539       .  S
C1507      C1513   1.533       .  S
C1507      C1511   1.539       .  S
C1507      C2212   1.541       .  S
C1508      H1515   1.086       .  S
C1508      C1509   1.366       .  D
C1509      C1510   1.543       .  S
C1509      C1948   1.485       .  S
C1510      C1514   1.543       .  S
C1510      C1512   1.551       .  S
C1510      H1516   1.107       .  S
C1511      H1517   1.080       .  S
C1511      C1512   1.371       .  D
C1512      C1933   1.504       .  S
C1513      H1518   1.086       .  S
C1513      C1514   1.360       .  D
C1514      C1921   1.490       .  S
O1519      C1534   1.258       .  A
O1519     Al4095   1.887       .  S
C1520      O1530   1.254       .  A
C1520      O1521   1.258       .  A
C1520      C1960   1.467       .  S
O1521     Al1523   1.899       .  S
O1522      C1524   1.253       .  A
Al1523     O1531   1.895       .  S
C1524      O1537   1.257       .  A
C1524      C1924   1.471       .  S
O1525      C1535   1.255       .  A
O1525     Al1527   1.868       .  S
O1526      C1539   1.260       .  A
Al1527     O4087   1.889   1_455  S
Al1527     O1540   1.883       .  S
Al1527     O4105   1.907   1_455  S
Al1527     O4100   1.794   1_455  S
O1528      C1535   1.264       .  A
O1529      C1538   1.263       .  A
O1529     Al4104   1.921       .  S
O1530     Al4104   1.870       .  S
O1531      C1538   1.259       .  A
O1532     Al4095   1.796       .  S
O1532     Al2820   1.804       .  S
O1533      C1534   1.261       .  A
C1534      C2248   1.478       .  S
C1535      C1996   1.476       .  S
Al1536     O4097   1.916   1_455  S
Al1536     O4098   1.875   1_455  S
Al1536     O2816   1.801   1_465  S
O1537     Al4095   1.905       .  S
C1538      C2284   1.487       .  S
C1539      O1540   1.258       .  A
C1539      C2332   1.497       .  S
C1541      C2197   1.494       .  S
C1541      C1542   1.421       .  A
C1541      C1546   1.406       .  A
C1542      C2137   1.500       .  S
C1542      C1543   1.411       .  A
C1543      C1544   1.410       .  A
C1543      H1548   1.084       .  S
C1544      C2020   1.503       .  S
C1544      C1545   1.418       .  A
C1545      C1936   1.488       .  S
C1545      C1546   1.408       .  A
C1546      H1547   1.085       .  S
C1549      C2092   1.477       .  S
C1549      C1550   1.411       .  A
C1549      C1554   1.402       .  A
C1550      C2152   1.490       .  S
C1550      C1551   1.406       .  A
C1551      C1552   1.408       .  A
C1551      H1556   1.084       .  S
C1552      C1981   1.484       .  S
C1552      C1553   1.416       .  A
C1553      C1945   1.491       .  S
C1553      C1554   1.405       .  A
C1554      H1555   1.084       .  S
C1557      C2101   1.484       .  S
C1557      C1558   1.410       .  A
C1557      C1562   1.401       .  A
C1558      C2188   1.483       .  S
C1558      C1559   1.405       .  A
C1559      C1560   1.408       .  A
C1559      H1564   1.085       .  S
C1560      C1969   1.491       .  S
C1560      C1561   1.417       .  A
C1561      C2008   1.486       .  S
C1561      C1562   1.408       .  A
C1562      H1563   1.085       .  S
C1565      C1566   1.537       .  S
C1565      C1571   1.541       .  S
C1565      C1569   1.541       .  S
C1565      C2392   1.546       .  S
C1566      H1573   1.086       .  S
C1566      C1567   1.365       .  D
C1567      C1568   1.541       .  S
C1567      C1897   1.484       .  S
C1568      C1572   1.542       .  S
C1568      C1570   1.542       .  S
C1568      H1574   1.110       .  S
C1569      H1575   1.076       .  S
C1569      C1570   1.371       .  D
C1570      C1909   1.488       .  S
C1571      H1576   1.087       .  S
C1571      C1572   1.362       .  D
C1572      C1885   1.489       .  S
C1577      C1578   1.542       .  S
C1577      C1583   1.536       .  S
C1577      C1581   1.538       .  S
C1577      C2404   1.542       .  S
C1578      H1585   1.081       .  S
C1578      C1579   1.364       .  D
C1579      C1580   1.548       .  S
C1579      C1876   1.478       .  S
C1580      C1584   1.542       .  S
C1580      C1582   1.543       .  S
C1580      H1586   1.103       .  S
C1581      H1587   1.086       .  S
C1581      C1582   1.371       .  D
C1582      C1861   1.503       .  S
C1583      H1588   1.087       .  S
C1583      C1584   1.365       .  D
C1584      C1849   1.496       .  S
C1589      C1590   1.536       .  S
C1589      C1595   1.530       .  S
C1589      C1593   1.548       .  S
C1589      C2416   1.538       .  S
C1590      H1597   1.086       .  S
C1590      C1591   1.365       .  D
C1591      C1592   1.544       .  S
C1591      C1825   1.480       .  S
C1592      C1596   1.536       .  S
C1592      C1594   1.544       .  S
C1592      H1598   1.108       .  S
C1593      H1599   1.081       .  S
C1593      C1594   1.375       .  D
C1594      C1840   1.499       .  S
C1595      H1600   1.088       .  S
C1595      C1596   1.354       .  D
C1596      C1813   1.474       .  S
O1601     Al1609   1.889       .  S
C1602      O1603   1.263       .  A
C1602      C1888   1.473       .  S
O1603     Al1605   1.919       .  S
O1604      C4174   1.254       .  A
O1604     Al1605   1.874       .  S
Al1605     O1613   1.889       .  S
Al1605     O4183   1.923       .  S
C1606      O4172   1.254   1_455  A
C1606      C1816   1.472       .  S
O1607      C1617   1.257       .  A
O1607     Al1609   1.879       .  S
O1608      C4189   1.263       .  A
O1608     Al1618   1.898       .  S
Al1609     O1622   1.921       .  S
Al1609     O1619   1.917       .  S
Al1609     O4182   1.781   1_455  S
O1610      C1617   1.263   1_655  A
O1610     Al4186   1.928       .  S
O1611     Al1618   1.911       .  S
O1612     Al1618   1.885       .  S
O1613      C1620   1.259       .  A
O1614     Al4177   1.783       .  S
O1614     Al1618   1.788       .  S
O1615      C1616   1.264       .  A
O1615     Al4173   1.924   1_455  S
C1616      C2521   1.479       .  S
C1617      C1852   1.488       .  S
Al1618     O4178   1.919       .  S
C1620      C2473   1.476       .  S
C1621      O4176   1.262   1_455  A
C1621      O1622   1.264       .  A
C1621      C2425   1.483       .  S
C1623      C1624   1.549       .  S
C1623      C1629   1.532       .  S
C1623      C1627   1.531       .  S
C1624      H1631   1.081       .  S
C1624      C1625   1.374       .  D
C1625      C1626   1.540       .  S
C1625      C1789   1.497       .  S
C1626      C1630   1.538       .  S
C1626      C1628   1.547       .  S
C1626      H1632   1.101       .  S
C1627      H1633   1.086       .  S
C1627      C1628   1.361       .  D
C1628      C1801   1.478       .  S
C1629      H1634   1.087       .  S
C1629      C1630   1.365       .  D
C1630      C1780   1.493       .  S
C1635      C1636   1.535       .  S
C1635      C1641   1.528       .  S
C1635      C1639   1.549       .  S
C1635      C4621   1.542       .  S
C1636      H4211   1.086       .  S
C1636      C1637   1.366       .  D
C1637      C1638   1.549       .  S
C1637      C1753   1.485       .  S
C1638      C1642   1.539       .  S
C1638      C1640   1.547       .  S
C1638      H1644   1.111       .  S
C1639      H4213   1.082       .  S
C1639      C1640   1.371       .  D
C1640      C1768   1.499       .  S
C1641      H1646   1.087       .  S
C1641      C1642   1.359       .  D
C1642      C1744   1.482       .  S
H1643      C4204   1.086   1_455  S
H1645      C4207   1.082       .  S
C1647      C1648   1.549       .  S
C1647      C1653   1.529       .  S
C1647      C1651   1.532       .  S
C1647      C2044   1.539       .  S
C1648      H1655   1.082       .  S
C1648      C1649   1.378       .  D
C1649      C1650   1.544       .  S
C1649      C1732   1.495       .  S
C1650      C1654   1.540       .  S
C1650      C1652   1.543       .  S
C1650      H1656   1.107       .  S
C1651      H1657   1.086       .  S
C1651      C1652   1.361       .  D
C1652      C1720   1.477       .  S
C1653      H1658   1.087       .  S
C1653      C1654   1.357       .  D
C1654      C1705   1.484       .  S
O1659      C1674   1.262       .  A
O1659     Al1667   1.903       .  S
C1660      O1670   1.259       .  A
C1660      O1661   1.259       .  A
C1660      C1708   1.493       .  S
O1661     Al1663   1.908       .  S
O1662      C1664   1.258       .  A
O1662     Al1663   1.898       .  S
Al1663     O1671   1.901       .  S
Al1663     O1673   1.924       .  S
Al1663     O1672   1.780       .  S
C1664      O1677   1.262       .  A
C1664      C1741   1.485       .  S
O1665      C1675   1.256       .  A
O1665     Al1667   1.883       .  S
O1666      C1679   1.263       .  A
O1666     Al1676   1.910       .  S
Al1667     O1680   1.902       .  S
Al1667     O1677   1.903       .  S
Al1667     O1672   1.783       .  S
O1668      C1675   1.263       .  A
O1668     Al1676   1.916       .  S
O1669      C1678   1.267       .  A
O1669     Al1676   1.920       .  S
O1670     Al1676   1.899       .  S
O1671      C1678   1.263       .  A
O1672     Al1676   1.781       .  S
O1673      C1674   1.267       .  A
C1674      C2164   1.496       .  S
C1675      C1777   1.463       .  S
C1678      C2116   1.499       .  S
C1679      O1680   1.259       .  A
C1679      C2068   1.492       .  S
C1681      C1828   1.490       .  S
C1681      C1682   1.414       .  A
C1681      C1686   1.406       .  A
C1682      C1912   1.483       .  S
C1682      C1683   1.404       .  A
C1683      C1684   1.406       .  A
C1683      H1688   1.084       .  S
C1684      C1717   1.488       .  S
C1684      C1685   1.414       .  A
C1685      C1756   1.482       .  S
C1685      C1686   1.402       .  A
C1686      H1687   1.084       .  S
C1689      C1837   1.480       .  S
C1689      C1690   1.410       .  A
C1689      C1694   1.404       .  A
C1690      C1873   1.481       .  S
C1690      C1691   1.401       .  A
C1691      C1692   1.401       .  A
C1691      H1696   1.085       .  S
C1692      C1729   1.478       .  S
C1692      C1693   1.410       .  A
C1693      C1804   1.484       .  S
C1693      C1694   1.403       .  A
C1694      H1695   1.084       .  S
C1697      C1900   1.484       .  S
C1697      C1698   1.411       .  A
C1697      C1702   1.401       .  A
C1698      C1864   1.477       .  S
C1698      C1699   1.404       .  A
C1699      C1700   1.399       .  A
C1699      H1704   1.085       .  S
C1700      C1765   1.483       .  S
C1700      C1701   1.412       .  A
C1701      C1792   1.477       .  S
C1701      C1702   1.403       .  A
C1702      H1703   1.085       .  S
C1705      C1706   1.401       .  A
C1705      C1710   1.410       .  A
C1706      C1707   1.396       .  A
C1706      H1715   1.084       .  S
C1707      C1708   1.420       .  A
C1707      S1711   1.802       .  S
C1708      C1709   1.411       .  A
C1709      C1710   1.403       .  A
C1709      H1716   1.083       .  S
C1710      S1712   1.798       .  S
S1711      H1714   1.408       .  S
S1712      H1713   1.404       .  S
C1717      C1718   1.403       .  A
C1717      C1722   1.416       .  A
C1718      C1719   1.397       .  A
C1718      H1727   1.072       .  S
C1719      C1720   1.407       .  A
C1719      S1723   1.797       .  S
C1720      C1721   1.402       .  A
C1721      C1722   1.400       .  A
C1721      H1728   1.083       .  S
C1722      S1724   1.805       .  S
S1723      H1726   1.404       .  S
S1724      H1725   1.407       .  S
C1729      C1730   1.399       .  A
C1729      C1734   1.409       .  A
C1730      C1731   1.404       .  A
C1730      H1739   1.083       .  S
C1731      C1732   1.420       .  A
C1731      S1735   1.802       .  S
C1732      C1733   1.406       .  A
C1733      C1734   1.395       .  A
C1733      H1740   1.084       .  S
C1734      S1736   1.805       .  S
S1735      H1738   1.407       .  S
S1736      H1737   1.405       .  S
C1741      C1742   1.403       .  A
C1741      C1746   1.421       .  A
C1742      C1743   1.389       .  A
C1742      H1751   1.084       .  S
C1743      C1744   1.413       .  A
C1743      S1747   1.801       .  S
C1744      C1745   1.401       .  A
C1745      C1746   1.404       .  A
C1745      H1752   1.084       .  S
C1746      S1748   1.800       .  S
S1747      H1750   1.400       .  S
S1748      H1749   1.408       .  S
C1753      C1754   1.404       .  A
C1753      C1758   1.413       .  A
C1754      C1755   1.403       .  A
C1754      H1763   1.085       .  S
C1755      C1756   1.418       .  A
C1755      S1759   1.810       .  S
C1756      C1757   1.402       .  A
C1757      C1758   1.399       .  A
C1757      H1764   1.085       .  S
C1758      S1760   1.800       .  S
S1759      H1762   1.403       .  S
S1760      H1761   1.404       .  S
C1765      C1766   1.400       .  A
C1765      C1770   1.415       .  A
C1766      C1767   1.403       .  A
C1766      H1775   1.083       .  S
C1767      C1768   1.418       .  A
C1767      S1771   1.806       .  S
C1768      C1769   1.403       .  A
C1769      C1770   1.402       .  A
C1769      H1776   1.077       .  S
C1770      S1772   1.808       .  S
S1771      H1774   1.407       .  S
S1772      H1773   1.402       .  S
C1777      C1778   1.400       .  A
C1777      C1782   1.403       .  A
C1778      C1779   1.404       .  A
C1778      H1787   1.083       .  S
C1779      C1780   1.418       .  A
C1779      S1783   1.804       .  S
C1780      C1781   1.410       .  A
C1781      C1782   1.394       .  A
C1781      H1788   1.084       .  S
C1782      S1784   1.801       .  S
S1783      H1786   1.407       .  S
S1784      H1785   1.406       .  S
C1789      C1790   1.410       .  A
C1789      C1794   1.419       .  A
C1790      C1791   1.399       .  A
C1790      H1799   1.083       .  S
C1791      C1792   1.408       .  A
C1791      S1795   1.804       .  S
C1792      C1793   1.395       .  A
C1793      C1794   1.398       .  A
C1793      H1800   1.077       .  S
C1794      S1796   1.801       .  S
S1795      H1798   1.406       .  S
S1796      H1797   1.408       .  S
C1801      C1802   1.400       .  A
C1801      C1806   1.416       .  A
C1802      C1803   1.396       .  A
C1802      H1811   1.082       .  S
C1803      C1804   1.412       .  A
C1803      S1807   1.804       .  S
C1804      C1805   1.403       .  A
C1805      C1806   1.401       .  A
C1805      H1812   1.083       .  S
C1806      S1808   1.806       .  S
S1807      H1810   1.406       .  S
S1808      H1809   1.399       .  S
C1813      C1814   1.401       .  A
C1813      C1818   1.409       .  A
C1814      C1815   1.394       .  A
C1814      H1823   1.084       .  S
C1815      C1816   1.414       .  A
C1815      S4387   1.803   1_455  S
C1816      C1817   1.405       .  A
C1817      C1818   1.399       .  A
S1819      C4383   1.804       .  S
S1819      H1822   1.407       .  S
S1820      H1821   1.406       .  S
C1825      C4394   1.400       .  A
C1825      C4398   1.409   1_455  A
C1826      C4393   1.399       .  A
C1826      C1827   1.400       .  A
C1826      H4403   1.083       .  S
C1827      C1828   1.413       .  A
C1827      S1831   1.808       .  S
C1828      C1829   1.406       .  A
C1829      C1830   1.401       .  A
C1829      H1836   1.081       .  S
C1830      C4393   1.411       .  A
C1830      S4400   1.801       .  S
S1831      H1834   1.407       .  S
S1832      C4398   1.795       .  S
S1832      H1833   1.404       .  S
H1835      C4394   1.082       .  S
C1837      C1838   1.399       .  A
C1837      C1842   1.405       .  A
C1838      C1839   1.405       .  A
C1838      H1847   1.083       .  S
C1839      S1843   1.803       .  S
C1840      C1841   1.409   1_565  A
C1841      H1848   1.082       .  S
C1842      S1844   1.806       .  S
S1844      H1845   1.406       .  S
C1849      C1850   1.410       .  A
C1849      C1854   1.415       .  A
C1850      C1851   1.400       .  A
C1850      H1859   1.084       .  S
C1851      C1852   1.413       .  A
C1851      S1855   1.800       .  S
C1852      C1853   1.406       .  A
C1853      C1854   1.401       .  A
C1853      H1860   1.082       .  S
C1854      S1856   1.804       .  S
S1855      H1858   1.408   1_455  S
S1856      H1857   1.406       .  S
C1861      C1862   1.410   1_455  A
C1861      C4434   1.421   1_455  A
C1862      C4431   1.402       .  A
C1862      H1871   1.082       .  S
C1863      C4430   1.400       .  A
C1863      C1864   1.405       .  A
C1863      S1867   1.807       .  S
C1864      C1865   1.398       .  A
C1865      C1866   1.403       .  A
C1865      H1872   1.082       .  S
C1866      C4429   1.420       .  A
C1866      S1868   1.801       .  S
S1867      H1870   1.407       .  S
S1868      H4437   1.407       .  S
H1869      S4436   1.407   1_655  S
C1873      C1874   1.403       .  A
C1873      C1878   1.411       .  A
C1874      C1875   1.403       .  A
C1874      H1883   1.084       .  S
C1875      C1876   1.416       .  A
C1875      S1879   1.808       .  S
C1876      C1877   1.398       .  A
C1877      C1878   1.395       .  A
C1877      H1884   1.082       .  S
C1878      S1880   1.804       .  S
S1879      H1882   1.401       .  S
S1880      H1881   1.406       .  S
C1885      C1886   1.408       .  A
C1885      C1890   1.413       .  A
C1886      C1887   1.397       .  A
C1886      H1895   1.084       .  S
C1887      C1888   1.408       .  A
C1888      C1889   1.404       .  A
C1889      C1890   1.406       .  A
C1889      H1896   1.083       .  S
C1890      S1892   1.806       .  S
S1891      H1894   1.407       .  S
S1892      H1893   1.407       .  S
C1898      C1899   1.400       .  A
C1899      C1900   1.415       .  A
C1899      S1903   1.805       .  S
C1900      C1901   1.403       .  A
C1901      C1902   1.401       .  A
C1901      H1908   1.084       .  S
C1902      S1904   1.800       .  S
S1903      H1906   1.405       .  S
C1909      C1910   1.405       .  A
C1909      C1914   1.415       .  A
C1910      C1911   1.404       .  A
C1910      H1919   1.083       .  S
C1911      C1912   1.413       .  A
C1911      S1915   1.805       .  S
C1912      C1913   1.402       .  A
C1913      C1914   1.397       .  A
C1913      H1920   1.084       .  S
C1914      S1916   1.806       .  S
S1915      H1918   1.404       .  S
S1916      H1917   1.405       .  S
C1921      C1922   1.404       .  A
C1921      C1926   1.424       .  A
C1922      C1923   1.398       .  A
C1922      H1931   1.083       .  S
C1923      C1924   1.411       .  A
C1923      S4495   1.799       .  S
C1924      C1925   1.396       .  A
C1925      C1926   1.398       .  A
C1925      H1932   1.084       .  S
C1926      S1928   1.804       .  S
S1927      C4491   1.799   1_455  S
S1927      H1930   1.406       .  S
S1928      H1929   1.396       .  S
C1933      C1934   1.409       .  A
C1933      C4506   1.418       .  A
C1934      C4503   1.395       .  A
C1934      H1943   1.084       .  S
C1935      C4502   1.395       .  A
C1935      C1936   1.414       .  A
C1935      S1939   1.811       .  S
C1936      C1937   1.404       .  A
C1937      C1938   1.411   1_455  A
C1937      H1944   1.083       .  S
C1938      C4501   1.418       .  A
C1938      S1940   1.803       .  S
S1939      H1942   1.402       .  S
S1940      H4509   1.407       .  S
H1941      S4508   1.407       .  S
C1945      C1946   1.403       .  A
C1946      C1947   1.401       .  A
C1946      H1955   1.083       .  S
C1947      S1951   1.794       .  S
C1948      C1949   1.400       .  A
C1949      C1950   1.402       .  A
C1949      H1956   1.084       .  S
C1950      S1952   1.806       .  S
C1957      C1958   1.406       .  A
C1957      C1962   1.409       .  A
C1958      C1959   1.394       .  A
C1958      H1967   1.084       .  S
C1959      C1960   1.408       .  A
C1959      S1963   1.804       .  S
C1960      C1961   1.405       .  A
C1961      C1962   1.402       .  A
C1961      H1968   1.083       .  S
C1962      S1964   1.805       .  S
S1963      H1966   1.407       .  S
S1964      H1965   1.407       .  S
C1969      C1970   1.405       .  A
C1969      C1974   1.413       .  A
C1970      C4539   1.399   1_455  A
C1970      H1979   1.084       .  S
C1971      C4538   1.398       .  A
C1971      C1972   1.410       .  A
C1971      S1975   1.803       .  S
C1972      C4541   1.404       .  A
C1973      C4540   1.403   1_455  A
C1973      C1974   1.408       .  A
C1973      H1980   1.083       .  S
C1974      S1976   1.803       .  S
S1975      H1978   1.404       .  S
S1976      H1977   1.407       .  S
C1981      C1982   1.401       .  A
C1981      C1986   1.412       .  A
C1982      C1983   1.397       .  A
C1982      H1991   1.084       .  S
C1983      C1984   1.417       .  A
C1983      S1987   1.805       .  S
C1984      C1985   1.406       .  A
C1985      C1986   1.405       .  A
C1985      H1992   1.081       .  S
C1986      S1988   1.801       .  S
S1987      H1990   1.406       .  S
S1988      H1989   1.405       .  S
C1993      C1994   1.402       .  A
C1993      C1998   1.416       .  A
C1994      C1995   1.402       .  A
C1994      H2003   1.084       .  S
C1995      C1996   1.413       .  A
C1995      S1999   1.797       .  S
C1996      C1997   1.401       .  A
C1997      C1998   1.396       .  A
C1997      H2004   1.085       .  S
C1998      S2000   1.806       .  S
S2000      H2001   1.402       .  S
C2005      C2006   1.411       .  A
C2005      C2010   1.425       .  A
C2006      H2015   1.082       .  S
C2007      C2008   1.412       .  A
C2007      S2011   1.810       .  S
C2008      C2009   1.402       .  A
C2009      H2016   1.084       .  S
C2010      S2012   1.797       .  S
S2011      H2014   1.404       .  S
S2012      H2013   1.389       .  S
C2017      C2018   1.403       .  A
C2017      C2022   1.417       .  A
C2018      C2019   1.405       .  A
C2018      H2027   1.082       .  S
C2019      C2020   1.417       .  A
C2019      S2023   1.796       .  S
C2020      C2021   1.407       .  A
C2021      C2022   1.401       .  A
C2021      H2028   1.084       .  S
C2022      S2024   1.811       .  S
S2023      H2026   1.406       .  S
S2024      H2025   1.398       .  S
C2029      C2030   1.397       .  A
C2029      C2034   1.410       .  A
C2030      C2031   1.401       .  A
C2030      H2039   1.083       .  S
C2031      C2032   1.428       .  A
C2032      C2033   1.413       .  A
C2033      C2034   1.403       .  A
C2033      H2040   1.076       .  S
C2034      S2036   1.804       .  S
S2035      H2038   1.406       .  S
S2036      H2037   1.407       .  S
C2041      C2042   1.398       .  A
C2041      C2046   1.412       .  A
C2042      C2043   1.402       .  A
C2042      H2051   1.083       .  S
C2043      C2044   1.428       .  A
C2043      S2047   1.813       .  S
C2044      C2045   1.410       .  A
C2045      C2046   1.402       .  A
C2045      H2052   1.077       .  S
C2046      S2048   1.799       .  S
S2047      H2050   1.407       .  S
S2048      H2049   1.407       .  S
C2053      C4203   1.542   1_455  S
C2053      C2054   1.412       .  A
C2053      C2058   1.423       .  A
C2054      C2055   1.405       .  A
C2054      H2063   1.075       .  S
C2055      C2056   1.416       .  A
C2055      S2059   1.808       .  S
C2056      C2057   1.406       .  A
C2057      C2058   1.402       .  A
C2057      H2064   1.082       .  S
C2058      S2060   1.811       .  S
S2059      H2062   1.407       .  S
S2060      H4629   1.407       .  S
H2061      S4628   1.407       .  S
C2065      C2066   1.410       .  A
C2065      C2070   1.422       .  A
C2066      C2067   1.394       .  A
C2066      H2075   1.085       .  S
C2067      C2068   1.417       .  A
C2067      S2071   1.802       .  S
C2068      C2069   1.406       .  A
C2069      C2070   1.405       .  A
C2069      H2076   1.084       .  S
C2070      S2072   1.797       .  S
S2071      H2074   1.408       .  S
S2072      H2073   1.408       .  S
C2077      C2078   1.409       .  A
C2077      C2082   1.414       .  A
C2078      C2079   1.402       .  A
C2078      H2087   1.082       .  S
C2079      C2080   1.413       .  A
C2079      S2083   1.809       .  S
C2080      C2081   1.406       .  A
C2081      C2082   1.404       .  A
C2081      H2088   1.079       .  S
C2082      S2084   1.807       .  S
S2083      H2086   1.407       .  S
S2084      H2085   1.407       .  S
C2089      C2090   1.402       .  A
C2089      C2094   1.416       .  A
C2090      C2091   1.401       .  A
C2090      H2099   1.077       .  S
C2091      C2092   1.414       .  A
C2091      S2095   1.808       .  S
C2092      C2093   1.400       .  A
C2093      C2094   1.399       .  A
C2093      H2100   1.084       .  S
C2094      S2096   1.805       .  S
S2095      H2098   1.402       .  S
S2096      H2097   1.401       .  S
C2101      C2102   1.402       .  A
C2101      C2106   1.409       .  A
C2102      C2103   1.402       .  A
C2102      H2111   1.083       .  S
C2103      C2104   1.415       .  A
C2103      S2107   1.803       .  S
C2104      C2105   1.403       .  A
C2105      C2106   1.405       .  A
C2105      H2112   1.075       .  S
C2106      S2108   1.804       .  S
S2107      H2110   1.406       .  S
S2108      H2109   1.407       .  S
C2113      C2114   1.414       .  A
C2113      C2118   1.424       .  A
C2114      C2115   1.407       .  A
C2114      H2123   1.074       .  S
C2115      C2116   1.416       .  A
C2115      S2119   1.811       .  S
C2116      C2117   1.405       .  A
C2117      C2118   1.403       .  A
C2117      H2124   1.082       .  S
C2118      S2120   1.811       .  S
S2119      H2122   1.407       .  S
S2120      H2121   1.406       .  S
C2125      C2126   1.399       .  A
C2125      C2130   1.415       .  A
C2126      C2127   1.400       .  A
C2126      H2135   1.085       .  S
C2127      C2128   1.420       .  A
C2127      S2131   1.799       .  S
C2128      C2129   1.405       .  A
C2129      C2130   1.396       .  A
C2129      H2136   1.084       .  S
C2130      S2132   1.807       .  S
S2131      H2134   1.389       .  S
S2132      H2133   1.398       .  S
C2137      C2138   1.404       .  A
C2137      C2142   1.420       .  A
C2138      C2139   1.402       .  A
C2138      H2147   1.081       .  S
C2139      C2140   1.415       .  A
C2139      S2143   1.793       .  S
C2140      C2141   1.403       .  A
C2141      C2142   1.402       .  A
C2141      H2148   1.084       .  S
C2142      S2144   1.805       .  S
S2143      H2146   1.401       .  S
S2144      H2145   1.406       .  S
C2149      C2150   1.409       .  A
C2149      C2154   1.420       .  A
C2150      C2151   1.400       .  A
C2150      H2159   1.084       .  S
C2151      C2152   1.410       .  A
C2151      S2155   1.805       .  S
C2152      C2153   1.402       .  A
C2153      C2154   1.409       .  A
C2153      H2160   1.080       .  S
C2154      S2156   1.803       .  S
S2155      H2158   1.406       .  S
S2156      H2157   1.407       .  S
C2161      C2162   1.413       .  A
C2161      C2166   1.426       .  A
C2162      C2163   1.411       .  A
C2162      H2171   1.075       .  S
C2163      C2164   1.415       .  A
C2163      S2167   1.809       .  S
C2164      C2165   1.403       .  A
C2165      C2166   1.401       .  A
C2165      H2172   1.082       .  S
C2166      S2168   1.814       .  S
S2167      H2170   1.407       .  S
S2168      H2169   1.406       .  S
C2173      C2174   1.400       .  A
C2173      C2178   1.414       .  A
C2174      C2175   1.403       .  A
C2174      H2183   1.083       .  S
C2175      C2176   1.419       .  A
C2175      S2179   1.806       .  S
C2176      C2177   1.403       .  A
C2177      C2178   1.399       .  A
C2177      H2184   1.083       .  S
C2178      S2180   1.809       .  S
S2179      H2182   1.407       .  S
S2180      H2181   1.407       .  S
C2185      C2186   1.401       .  A
C2185      C2190   1.414       .  A
C2186      C2187   1.400       .  A
C2186      H2195   1.081       .  S
C2187      C2188   1.415       .  A
C2187      S2191   1.808       .  S
C2188      C2189   1.403       .  A
C2189      C2190   1.402       .  A
C2189      H2196   1.083       .  S
C2190      S2192   1.804       .  S
S2191      H2194   1.402       .  S
S2192      H2193   1.403       .  S
C2197      C2198   1.404       .  A
C2197      C2202   1.413       .  A
C2198      C2199   1.400       .  A
C2198      H2207   1.084       .  S
C2199      C2200   1.418       .  A
C2199      S2203   1.803       .  S
C2200      C2201   1.410       .  A
C2201      C2202   1.408       .  A
C2201      H2208   1.081       .  S
C2202      S2204   1.803       .  S
S2203      H4774   1.405       .  S
S2204      H2205   1.405       .  S
H2206      S4771   1.405       .  S
C2209      C2210   1.404       .  A
C2209      C2214   1.412       .  A
C2210      C2211   1.398       .  A
C2210      H2219   1.082       .  S
C2211      C2212   1.423       .  A
C2211      S2215   1.809       .  S
C2212      C2213   1.416       .  A
C2213      C2214   1.402       .  A
C2213      H2220   1.075       .  S
C2214      S2216   1.803       .  S
S2215      H2218   1.407       .  S
S2216      H2217   1.408       .  S
C2221      C2222   1.403       .  A
C2221      C2226   1.408       .  A
C2222      C2223   1.408       .  A
C2222      H2231   1.084       .  S
C2223      C2224   1.422       .  A
C2223      S2227   1.800       .  S
C2224      C2225   1.410       .  A
C2225      C2226   1.392       .  A
C2225      H2232   1.084       .  S
C2226      S2228   1.801       .  S
S2227      H2230   1.408       .  S
S2228      H2229   1.406       .  S
C2233      C2234   1.399       .  A
C2233      C2238   1.408       .  A
C2234      C2235   1.400       .  A
C2234      H2243   1.083       .  S
C2235      C2236   1.427       .  A
C2235      S2239   1.812       .  S
C2236      C2237   1.414       .  A
C2237      C2238   1.402       .  A
C2237      H2244   1.077       .  S
C2238      S2240   1.803       .  S
S2239      H2242   1.407       .  S
S2240      H2241   1.407       .  S
C2245      C2246   1.412       .  A
C2245      C2250   1.427       .  A
C2246      C2247   1.401       .  A
C2246      H2255   1.076       .  S
C2247      C2248   1.410       .  A
C2248      C2249   1.398       .  A
C2249      C2250   1.399       .  A
C2249      H2256   1.083       .  S
C2250      S2252   1.814       .  S
S2251      H2254   1.407       .  S
S2252      H2253   1.406       .  S
C2257      C2258   1.406       .  A
C2257      C2262   1.411       .  A
C2258      C2259   1.398       .  A
C2258      H2267   1.084       .  S
C2259      C2260   1.414       .  A
C2259      S2263   1.799       .  S
C2260      C2261   1.409       .  A
C2261      C2262   1.402       .  A
C2261      H2268   1.082       .  S
C2262      S2264   1.806       .  S
S2263      H2266   1.408       .  S
S2264      H2265   1.407       .  S
C2269      C2270   1.401       .  A
C2269      C2274   1.413       .  A
C2270      C2271   1.399       .  A
C2270      H2279   1.085       .  S
C2271      C2272   1.415       .  A
C2271      S4843   1.801       .  S
C2272      C2273   1.405       .  A
C2273      C2274   1.398       .  A
C2273      H2280   1.085   1_554  S
C2274      S2276   1.805       .  S
S2275      C4839   1.803       .  S
S2275      H2278   1.404   1_655  S
S2276      H2277   1.402       .  S
C2281      C2282   1.411       .  A
C2281      C2286   1.426       .  A
C2282      C2283   1.398       .  A
C2282      H2291   1.084       .  S
C2283      C2284   1.413       .  A
C2283      S2287   1.801       .  S
C2284      C2285   1.403       .  A
C2285      C2286   1.407       .  A
C2285      H2292   1.084       .  S
C2286      S2288   1.798       .  S
S2287      H2290   1.406       .  S
S2288      H2289   1.408       .  S
C2293      C2294   1.405       .  A
C2293      C2298   1.421       .  A
C2294      C2295   1.399       .  A
C2294      H2303   1.084       .  S
C2295      C2296   1.415       .  A
C2295      S2299   1.805       .  S
C2296      C2297   1.399       .  A
C2297      C2298   1.401       .  A
C2297      H2304   1.084       .  S
C2298      S2300   1.798       .  S
S2299      H2302   1.407       .  S
S2300      H2301   1.407       .  S
C2305      C2306   1.410       .  A
C2305      C2310   1.425       .  A
C2306      C2307   1.402       .  A
C2306      H2315   1.082       .  S
C2307      C2308   1.407       .  A
C2307      S2311   1.805       .  S
C2308      C2309   1.399       .  A
C2309      C2310   1.408       .  A
C2309      H2316   1.083       .  S
C2310      S2312   1.799       .  S
S2311      H2314   1.407       .  S
S2312      H2313   1.408       .  S
C2317      C2318   1.402       .  A
C2317      C2322   1.412       .  A
C2318      C2319   1.401       .  A
C2318      H2327   1.078       .  S
C2319      C2320   1.412       .  A
C2319      S2323   1.805   1_554  S
C2320      C2321   1.402       .  A
C2321      C2322   1.398       .  A
C2321      H2328   1.082       .  S
C2322      S2324   1.804       .  S
S2323      H2326   1.403       .  S
S2324      H2325   1.405       .  S
C2329      C2330   1.415       .  A
C2329      C2334   1.423       .  A
C2330      C2331   1.412       .  A
C2330      H2339   1.075       .  S
C2331      C2332   1.414       .  A
C2331      S2335   1.808       .  S
C2332      C2333   1.405       .  A
C2333      C2334   1.395       .  A
C2333      H2340   1.081       .  S
C2334      S2336   1.815       .  S
S2336      H2337   1.406       .  S
C2341      C2342   1.398       .  A
C2341      C2346   1.411       .  A
C2342      C2343   1.397       .  A
C2342      H2351   1.083       .  S
C2343      C2344   1.421       .  A
C2343      S2347   1.801       .  S
C2344      C2345   1.406       .  A
C2345      C2346   1.395       .  A
C2345      H2352   1.084       .  S
C2346      S2348   1.805       .  S
S2347      H2350   1.408       .  S
S2348      H2349   1.407       .  S
C2353      C2354   1.404       .  A
C2353      C2358   1.412       .  A
C2354      C2355   1.402       .  A
C2354      H2363   1.084       .  S
C2355      C2356   1.415       .  A
C2355      S2359   1.807       .  S
C2356      C2357   1.399       .  A
C2357      C2358   1.395       .  A
C2357      H2364   1.083       .  S
C2358      S2360   1.804   1_554  S
S2359      H2362   1.399       .  S
S2360      H2361   1.406       .  S
C2365      C2366   1.401       .  A
C2365      C2370   1.414       .  A
C2366      C2367   1.398       .  A
C2366      H2375   1.079       .  S
C2367      C2368   1.413       .  A
C2367      S2371   1.809   1_554  S
C2368      C2369   1.402       .  A
C2369      C2370   1.398       .  A
C2369      H2376   1.084       .  S
C2370      S2372   1.805       .  S
S2371      H2374   1.402       .  S
S2372      H2373   1.405       .  S
C2377      C2378   1.409       .  A
C2377      C2382   1.422       .  A
C2378      C2379   1.397       .  A
C2378      H2387   1.083       .  S
C2379      C2380   1.408       .  A
C2380      C2381   1.398       .  A
C2381      C2382   1.403       .  A
C2381      H2388   1.078       .  S
C2382      S2384   1.802       .  S
S2383      H2386   1.406       .  S
S2384      H2385   1.407       .  S
C2389      C2390   1.406       .  A
C2389      C2394   1.419       .  A
C2390      C2391   1.409       .  A
C2390      H2399   1.084       .  S
C2391      C2392   1.425       .  A
C2391      S2395   1.798       .  S
C2392      C2393   1.407       .  A
C2393      C2394   1.392       .  A
C2393      H2400   1.085       .  S
C2394      S2396   1.804       .  S
S2395      H2398   1.408       .  S
S2396      H2397   1.408       .  S
C2401      C2402   1.400       .  A
C2401      C2406   1.408       .  A
C2402      C2403   1.400       .  A
C2402      H2411   1.083       .  S
C2403      C2404   1.425       .  A
C2403      S2407   1.813       .  S
C2404      C2405   1.416       .  A
C2405      C2406   1.404       .  A
C2405      H2412   1.076       .  S
C2406      S2408   1.804       .  S
S2407      H2410   1.407       .  S
S2408      H2409   1.408       .  S
C2413      C2414   1.404       .  A
C2413      C2418   1.414       .  A
C2414      C2415   1.398       .  A
C2414      H2423   1.082       .  S
C2415      C2416   1.423       .  A
C2415      S2419   1.813       .  S
C2416      C2417   1.412       .  A
C2417      C2418   1.402       .  A
C2417      H2424   1.076       .  S
C2418      S2420   1.803       .  S
S2419      H2422   1.407       .  S
S2420      H2421   1.408       .  S
C2425      C2426   1.398       .  A
C2425      C2430   1.409       .  A
C2426      C2427   1.401       .  A
C2426      H2435   1.083   1_455  S
C2427      C2428   1.429       .  A
C2427      S2431   1.813       .  S
C2428      C2429   1.414       .  A
C2429      C2430   1.406       .  A
C2429      H2436   1.075       .  S
C2430      S2432   1.809       .  S
S2431      H2434   1.406   1_455  S
S2432      H2433   1.406       .  S
C2437      C2438   1.403       .  A
C2437      C2442   1.415       .  A
C2438      C2439   1.402       .  A
C2438      H2447   1.084       .  S
C2439      C2440   1.418       .  A
C2439      S2443   1.803       .  S
C2440      C2441   1.405       .  A
C2441      C2442   1.398       .  A
C2441      H2448   1.082       .  S
C2442      S2444   1.810       .  S
S2443      H2446   1.405       .  S
S2444      H2445   1.406       .  S
C2449      C2450   1.408       .  A
C2449      C2454   1.421       .  A
C2450      C2451   1.398       .  A
C2450      H2459   1.084       .  S
C2451      C2452   1.410       .  A
C2451      S2455   1.804       .  S
C2452      C2453   1.400       .  A
C2453      C2454   1.406       .  A
C2453      H2460   1.083       .  S
C2454      S2456   1.802       .  S
S2455      H2458   1.406       .  S
S2456      H2457   1.407       .  S
C2461      C2462   1.404       .  A
C2461      C2466   1.419       .  A
C2462      C2463   1.399       .  A
C2462      H5039   1.078       .  S
C2463      C2464   1.408       .  A
C2463      S2467   1.798       .  S
C2464      C2465   1.401       .  A
C2465      C2466   1.401       .  A
C2465      H2472   1.084       .  S
C2466      S2468   1.806   1_556  S
S2467      H2470   1.404       .  S
S2468      H2469   1.400       .  S
H2471      C5030   1.076       .  S
C2473      C2474   1.399       .  A
C2473      C2478   1.407       .  A
C2474      C2475   1.402       .  A
C2474      H2483   1.083       .  S
C2475      C2476   1.427       .  A
C2475      S2479   1.813       .  S
C2476      C2477   1.414       .  A
C2477      C2478   1.400       .  A
C2477      H2484   1.075       .  S
S2479      H2482   1.406       .  S
S2480      H2481   1.407       .  S
C2485      C2486   1.409       .  A
C2485      C2490   1.416       .  A
C2486      C2487   1.403       .  A
C2486      H2495   1.082       .  S
C2487      C2488   1.410       .  A
C2487      S2491   1.807       .  S
C2488      C2489   1.405       .  A
C2489      C2490   1.399       .  A
C2489      H2496   1.082       .  S
C2490      S2492   1.811       .  S
S2491      H2494   1.407       .  S
S2492      H2493   1.406       .  S
C2497      C2498   1.398       .  A
C2497      C2502   1.410       .  A
C2498      C2499   1.395       .  A
C2498      H2507   1.083       .  S
C2499      C2500   1.415       .  A
C2499      S2503   1.802   1_556  S
C2500      C2501   1.406       .  A
C2501      C2502   1.401       .  A
C2501      H2508   1.083       .  S
C2502      S2504   1.798       .  S
S2503      H2506   1.407       .  S
S2504      H2505   1.404       .  S
C2509      C2510   1.408       .  A
C2509      C2514   1.416       .  A
C2510      C2511   1.398       .  A
C2510      H2519   1.084       .  S
C2511      C2512   1.414       .  A
C2512      C2513   1.401       .  A
C2513      C2514   1.403       .  A
C2513      H2520   1.080       .  S
C2514      S2516   1.801       .  S
S2515      H2518   1.399       .  S
S2516      H2517   1.407       .  S
C2521      C2522   1.402       .  A
C2521      C2526   1.408       .  A
C2522      C2523   1.407       .  A
C2522      H2531   1.084       .  S
C2523      C2524   1.426       .  A
C2523      S2527   1.798       .  S
C2524      C2525   1.412       .  A
C2525      C2526   1.394       .  A
C2525      H2532   1.084       .  S
C2526      S2528   1.800   1_565  S
S2527      H2530   1.408       .  S
S2528      H2529   1.407       .  S
C2533      C2534   1.401       .  A
C2533      C2538   1.414       .  A
C2534      C2535   1.401       .  A
C2534      H2543   1.084       .  S
C2535      C2536   1.420       .  A
C2535      S2539   1.801       .  S
C2536      C2537   1.405       .  A
C2537      C2538   1.395       .  A
C2537      H2544   1.084       .  S
C2538      S2540   1.806       .  S
S2539      H2542   1.405       .  S
S2540      H2541   1.407       .  S
C2545      C2546   1.404       .  A
C2545      C2550   1.414       .  A
C2546      C2547   1.399       .  A
C2546      H5123   1.081       .  S
C2547      C2548   1.412       .  A
C2547      S2551   1.805       .  S
C2548      C2549   1.399       .  A
C2549      C2550   1.397       .  A
C2549      H2556   1.081       .  S
C2550      S2552   1.805   1_556  S
S2551      H2554   1.399       .  S
S2552      H2553   1.400       .  S
H2555      C5114   1.080       .  S
C2557      C2558   1.409       .  A
C2557      C2562   1.420       .  A
C2558      C2559   1.400       .  A
C2558      H2567   1.084       .  S
C2559      C2560   1.410       .  A
C2560      C2561   1.399       .  A
C2561      C2562   1.404       .  A
C2561      H2568   1.081       .  S
C2562      S2564   1.798       .  S
S2563      H2566   1.399       .  S
S2564      H2565   1.408       .  S
C2569      C2570   1.539       .  S
C2569      C2575   1.538       .  S
C2569      C2573   1.538       .  S
C2569      C3808   1.542       .  S
C2570      H2577   1.078       .  S
C2570      C2571   1.365       .  D
C2571      C2572   1.544       .  S
C2571      C3832   1.477       .  S
C2572      C2576   1.536       .  S
C2572      C2574   1.543       .  S
C2572      H2578   1.106       .  S
C2573      H2579   1.086       .  S
C2573      C2574   1.373       .  D
C2574      C3841   1.504       .  S
C2575      H2580   1.087       .  S
C2575      C2576   1.360       .  D
C2576      C3817   1.482       .  S
C2581      C2582   1.546       .  S
C2581      C2587   1.530       .  S
C2581      C2585   1.533       .  S
C2581      C3760   1.539       .  S
C2582      H2589   1.081       .  S
C2582      C2583   1.374       .  D
C2583      C2584   1.549       .  S
C2583      C3793   1.500       .  S
C2584      C2588   1.543       .  S
C2584      C2586   1.546       .  S
C2584      H2590   1.108       .  S
C2585      H2591   1.086       .  S
C2585      C2586   1.362       .  D
C2586      C3781   1.481       .  S
C2587      H2592   1.087       .  S
C2587      C2588   1.360       .  D
C2588      C3772   1.489       .  S
C2593      C2594   1.546       .  S
C2593      C2599   1.528       .  S
C2593      C2597   1.536       .  S
C2593      C3712   1.539       .  S
C2594      H2601   1.082       .  S
C2594      C2595   1.375       .  D
C2595      C2596   1.546       .  S
C2595      C3733   1.497       .  S
C2596      C2600   1.542       .  S
C2596      C2598   1.544       .  S
C2596      H2602   1.108       .  S
C2597      H2603   1.086       .  S
C2597      C2598   1.363       .  D
C2598      C3748   1.482       .  S
C2599      H2604   1.086       .  S
C2599      C2600   1.358       .  D
C2600      C3721   1.487       .  S
O2605      C2620   1.263       .  A
O2605     Al2613   1.905       .  S
C2606      O2616   1.256       .  A
C2606      O2607   1.259       .  A
C2606      C3724   1.486       .  S
O2607     Al2609   1.897       .  S
O2608      C2610   1.257       .  A
O2608     Al2609   1.895       .  S
Al2609     O2617   1.885       .  S
Al2609     O2619   1.907       .  S
Al2609     O2618   1.780       .  S
C2610      O2623   1.262       .  A
C2610      C3820   1.488       .  S
O2611      C2621   1.261       .  A
O2611     Al2613   1.891       .  S
O2612      C2625   1.263       .  A
O2612     Al2622   1.914       .  S
Al2613     O2626   1.896       .  S
Al2613     O2623   1.911       .  S
Al2613     O2618   1.782       .  S
O2614      C2621   1.264       .  A
O2614     Al2622   1.916       .  S
O2615      C2624   1.268       .  A
O2615     Al2622   1.932       .  S
O2616     Al2622   1.901       .  S
O2617      C2624   1.261       .  A
O2618     Al2622   1.787       .  S
O2619      C2620   1.264       .  A
C2620      C3697   1.492       .  S
C2621      C3769   1.488       .  S
C2624      C3685   1.482       .  S
C2625      O2626   1.258       .  A
C2625      C3673   1.491       .  S
C2627      C3844   1.481       .  S
C2627      C2628   1.418       .  A
C2627      C3916   1.404       .  A
C2628      C3796   1.487       .  S
C2628      C3913   1.403       .  A
C2629      C3912   1.402   1_545  A
C2629      C2630   1.402   1_556  A
C2629      H2634   1.085       .  S
C2630      C3652   1.473       .  S
C2630      C2631   1.410       .  A
C2631      C3664   1.482       .  S
C2631      C2632   1.400   1_554  A
C2632      C3911   1.403   1_545  A
C2632      H2633   1.085       .  S
C2635      C2636   1.536       .  S
C2635      C2641   1.532       .  S
C2635      C2639   1.550       .  S
C2635      C3613   1.540       .  S
C2636      H2643   1.086       .  S
C2636      C2637   1.362       .  D
C2637      C2638   1.543       .  S
C2637      C3640   1.480       .  S
C2638      C2642   1.531       .  S
C2638      C2640   1.544       .  S
C2638      H2644   1.106       .  S
C2639      H2645   1.081       .  S
C2639      C2640   1.377       .  D
C2640      C3661   1.501       .  S
C2641      H2646   1.087       .  S
C2641      C2642   1.358       .  D
C2642      C3625   1.476       .  S
C2647      C2648   1.538       .  S
C2647      C2653   1.538       .  S
C2647      C2651   1.541       .  S
C2647      C3565   1.544       .  S
C2648      H2655   1.076       .  S
C2648      C2649   1.364       .  D
C2649      C2650   1.546       .  S
C2649      C3601   1.482       .  S
C2650      C2654   1.540       .  S
C2650      C2652   1.544       .  S
C2650      H2656   1.107       .  S
C2651      H2657   1.086       .  S
C2651      C2652   1.376       .  D
C2652      C3589   1.507       .  S
C2653      H2658   1.087       .  S
C2653      C2654   1.359       .  D
C2654      C3580   1.486       .  S
C2659      C2660   1.546       .  S
C2659      C2665   1.531       .  S
C2659      C2663   1.534       .  S
C2659      C3529   1.534       .  S
C2660      H2667   1.081       .  S
C2660      C2661   1.371       .  D
C2661      C2662   1.542       .  S
C2661      C3649   1.484       .  S
C2662      C2666   1.539       .  S
C2662      C2664   1.542       .  S
C2662      H2668   1.110       .  S
C2663      H2669   1.086       .  S
C2663      C2664   1.363       .  D
C2664      C3553   1.480       .  S
C2665      H2670   1.087       .  S
C2665      C2666   1.359       .  D
C2666      C3541   1.483       .  S
O2671      C2686   1.262       .  A
O2671     Al2679   1.905       .  S
C2672      O2682   1.254       .  A
C2672      O2673   1.262       .  A
C2672      C3628   1.483       .  S
O2673     Al2675   1.913       .  S
O2674      C2676   1.257       .  A
O2674     Al2675   1.875       .  S
Al2675     O2683   1.882       .  S
Al2675     O2685   1.907       .  S
Al2675     O2684   1.780       .  S
C2676      O2689   1.263       .  A
C2676      C3544   1.488       .  S
O2677      C2687   1.258       .  A
O2677     Al2679   1.896       .  S
O2678      C2691   1.259       .  A
O2678     Al2688   1.886       .  S
Al2679     O2692   1.930       .  S
Al2679     O2689   1.927       .  S
Al2679     O2684   1.783       .  S
O2680      C2687   1.264       .  A
O2680     Al2688   1.919       .  S
O2681      C2690   1.266       .  A
O2681     Al2688   1.927       .  S
O2682     Al2688   1.881       .  S
O2683      C2690   1.259       .  A
O2684     Al2688   1.779       .  S
O2685      C2686   1.264       .  A
C2686      C3493   1.496       .  S
C2687      C3577   1.489       .  S
C2690      C3517   1.475       .  S
C2691      O2692   1.266       .  A
C2691      C3505   1.478       .  S
C2693      C3745   1.495       .  S
C2693      C2694   1.419       .  A
C2694      C3829   1.482       .  S
C2695      C2696   1.401   1_556  A
C2695      H2700   1.085       .  S
C2696      C3604   1.482       .  S
C2696      C2697   1.412       .  A
C2697      C3556   1.481       .  S
C2697      C2698   1.404   1_554  A
C2698      H2699   1.084       .  S
C2701      C3736   1.482       .  S
C2701      C2702   1.412       .  A
C2701      C2706   1.404       .  A
C2702      C3784   1.492       .  S
C2702      C2703   1.405       .  A
C2703      C2704   1.405   1_556  A
C2703      H2708   1.084       .  S
C2704      C3592   1.487       .  S
C2704      C2705   1.414       .  A
C2705      C3637   1.489       .  S
C2705      C2706   1.406   1_554  A
C2706      H2707   1.085       .  S
C2709      C3445   1.543       .  S
C2710      C2711   1.366       .  D
C2711      C2712   1.545       .  S
C2711      C3469   1.486       .  S
C2712      C2716   1.541       .  S
C2712      C2714   1.543       .  S
C2712      H2718   1.110       .  S
C2713      C2714   1.376       .  D
C2714      C3484   1.502       .  S
C2715      H2720   1.087       .  S
C2715      C2716   1.359       .  D
C2716      C3457   1.487       .  S
C2721      C2722   1.542       .  S
C2721      C2727   1.529       .  S
C2721      C2725   1.547       .  S
C2721      C3397   1.544       .  S
C2722      H2729   1.086       .  S
C2722      C2723   1.372       .  D
C2723      C2724   1.546       .  S
C2723      C3424   1.493       .  S
C2724      C2728   1.542       .  S
C2724      C2726   1.545       .  S
C2724      H2730   1.108       .  S
C2725      H2731   1.081       .  S
C2725      C2726   1.372       .  D
C2726      C3433   1.500       .  S
C2727      H2732   1.087       .  S
C2727      C2728   1.353       .  D
C2728      C3409   1.474       .  S
C2733      C2734   1.534       .  S
C2733      C4023   1.537   1_545  S
C2733      C2737   1.548       .  S
C2733      C3349   1.546       .  S
C2734      H2741   1.087       .  S
C2734      C4019   1.363   1_545  D
C2735      C2736   1.543       .  S
C2735      C4018   1.367       .  D
C2735      C3373   1.488       .  S
C2736      C2740   1.544       .  S
C2736      C2738   1.542       .  S
C2736      H2742   1.109       .  S
C2737      H2743   1.075       .  S
C2737      C4022   1.372   1_545  D
C2738      C4021   1.368       .  D
C2738      C3388   1.489       .  S
C2739      C4017   1.528       .  S
C2739      H2744   1.087       .  S
C2739      C2740   1.363       .  D
C2740      C3361   1.492       .  S
O2745      C2760   1.263       .  A
O2745     Al2753   1.901       .  S
C2746      O2756   1.258       .  A
C2746      O2747   1.259       .  A
C2746      C3412   1.486       .  S
O2747     Al2749   1.921       .  S
O2748      C2750   1.257       .  A
O2748     Al2749   1.888       .  S
Al2749     O2757   1.895       .  S
Al2749     O2759   1.914       .  S
Al2749     O2758   1.787       .  S
C2750      O2763   1.260       .  A
C2750      C3364   1.481       .  S
O2751      C2761   1.256       .  A
O2751     Al2753   1.886       .  S
O2752      C2765   1.259       .  A
O2752     Al2762   1.903       .  S
Al2753     O2766   1.916       .  S
Al2753     O2763   1.910       .  S
Al2753     O2758   1.789       .  S
O2754      C2761   1.265       .  A
O2754     Al2762   1.924       .  S
O2755      C2764   1.265       .  A
O2755     Al2762   1.920       .  S
O2756     Al2762   1.886       .  S
O2757      C2764   1.262       .  A
O2758     Al2762   1.783       .  S
O2759      C2760   1.263       .  A
C2760      C3313   1.478       .  S
C2761      C3460   1.490       .  S
C2764      C3325   1.481       .  S
C2765      O2766   1.264       .  A
C2765      C3340   1.499       .  S
C2767      C2768   1.543       .  S
C2767      C2773   1.526       .  S
C2767      C2771   1.534       .  S
C2767      C3520   1.537       .  S
C2768      H2775   1.082       .  S
C2768      C2769   1.368       .  D
C2769      C2770   1.549       .  S
C2769      C3301   1.482       .  S
C2770      C2774   1.539       .  S
C2770      C2772   1.553       .  S
C2770      H2776   1.105       .  S
C2771      H2777   1.085       .  S
C2771      C2772   1.377       .  D
C2772      C3289   1.513       .  S
C2773      H2778   1.087       .  S
C2773      C2774   1.353       .  D
C2774      C3277   1.478       .  S
C2779      C2780   1.544       .  S
C2779      C2785   1.536       .  S
C2779      C2783   1.537       .  S
C2779      C3508   1.545       .  S
C2780      H2787   1.077       .  S
C2780      C2781   1.368       .  D
C2781      C2782   1.542       .  S
C2781      C3256   1.483       .  S
C2782      C2786   1.543       .  S
C2782      C2784   1.545       .  S
C2782      H2788   1.110       .  S
C2783      H2789   1.086       .  S
C2783      C2784   1.370       .  D
C2784      C3268   1.496       .  S
C2785      H2790   1.087       .  S
C2785      C2786   1.360       .  D
C2786      C3241   1.487       .  S
C2791      C2792   1.541       .  S
C2791      C2797   1.532       .  S
C2791      C2795   1.542       .  S
C2791      C3496   1.544       .  S
C2792      H2799   1.086       .  S
C2792      C2793   1.368       .  D
C2793      C2794   1.543       .  S
C2793      C3232   1.488       .  S
C2794      C2798   1.542       .  S
C2794      C2796   1.550       .  S
C2794      H2800   1.107       .  S
C2795      H2801   1.081       .  S
C2795      C2796   1.373       .  D
C2796      C3217   1.504       .  S
C2797      H2802   1.086       .  S
C2797      C2798   1.358       .  D
C2798      C3205   1.487       .  S
O2803      C2818   1.258       .  A
C2804      O2814   1.255       .  A
C2804      O2805   1.257       .  A
C2804      C3244   1.470       .  S
O2805     Al2807   1.896       .  S
O2806      C2808   1.254       .  A
O2806     Al4091   1.886   1_545  S
Al2807     O4090   1.880       .  S
Al2807     O2815   1.885       .  S
Al2807     O4101   1.910       .  S
Al2807     O4100   1.797       .  S
C2808      O2821   1.258       .  A
C2808      C3208   1.472       .  S
O2809      C2819   1.253       .  A
O2809     Al2811   1.865       .  S
O2810      C2823   1.259       .  A
O2810     Al4104   1.904   1_545  S
Al2811     O2824   1.895       .  S
O2812      C2819   1.263       .  A
O2812     Al4104   1.929   1_545  S
O2813      C2822   1.263       .  A
O2815      C2822   1.257       .  A
O2816     Al4091   1.797   1_545  S
O2817      C2818   1.261       .  A
O2817     Al4091   1.907   1_545  S
C2818      C3532   1.475       .  S
C2819      C3280   1.473       .  S
Al2820     O4094   1.911       .  S
Al2820     O4096   1.931       .  S
C2822      C3568   1.482       .  S
C2823      O2824   1.261       .  A
C2823      C3616   1.495       .  S
C2825      C3481   1.490       .  S
C2825      C2826   1.423       .  A
C2825      C2830   1.406       .  A
C2826      C3421   1.503       .  S
C2826      C2827   1.410       .  A
C2827      C2828   1.407       .  A
C2827      H2832   1.084       .  S
C2828      C3304   1.496       .  S
C2828      C2829   1.415       .  A
C2829      C3220   1.488       .  S
C2829      C2830   1.405       .  A
C2830      H2831   1.085       .  S
C2833      C3376   1.481       .  S
C2833      C2834   1.411       .  A
C2833      C2838   1.402       .  A
C2834      C3436   1.485       .  S
C2834      C2835   1.406       .  A
C2835      C2836   1.407       .  A
C2835      H2840   1.085       .  S
C2836      C3265   1.490       .  S
C2836      C2837   1.417       .  A
C2837      C3229   1.486       .  S
C2837      C2838   1.406       .  A
C2838      H2839   1.085       .  S
C2841      C3385   1.488       .  S
C2841      C2842   1.413       .  A
C2841      C2846   1.403       .  A
C2842      C3472   1.486       .  S
C2842      C2843   1.406       .  A
C2843      C2844   1.409       .  A
C2843      H2848   1.085       .  S
C2844      C3253   1.496       .  S
C2844      C2845   1.418       .  A
C2845      C3292   1.487       .  S
C2845      C2846   1.408       .  A
C2846      H2847   1.085       .  S
C2849      C2850   1.537       .  S
C2849      C2855   1.539       .  S
C2849      C2853   1.542       .  S
C2849      C3676   1.545       .  S
C2850      H2857   1.086       .  S
C2850      C2851   1.364       .  D
C2851      C2852   1.540       .  S
C2851      C3181   1.482       .  S
C2852      C2856   1.542       .  S
C2852      C2854   1.542       .  S
C2852      H2858   1.110       .  S
C2853      H2859   1.075       .  S
C2853      C2854   1.371       .  D
C2854      C3193   1.489       .  S
C2855      H2860   1.087       .  S
C2855      C2856   1.361       .  D
C2856      C3169   1.487       .  S
C2861      C2862   1.544       .  S
C2861      C2867   1.533       .  S
C2861      C2865   1.541       .  S
C2861      C3688   1.543       .  S
C2862      H2869   1.080       .  S
C2862      C2863   1.366       .  D
C2863      C2864   1.549       .  S
C2863      C3160   1.483       .  S
C2864      C2868   1.541       .  S
C2864      C2866   1.544       .  S
C2864      H2870   1.103       .  S
C2865      H2871   1.086       .  S
C2865      C2866   1.373       .  D
C2866      C3145   1.506       .  S
C2867      H2872   1.087       .  S
C2867      C2868   1.363       .  D
C2868      C3133   1.493       .  S
C2873      C2874   1.536       .  S
C2873      C2879   1.530       .  S
C2873      C2877   1.546       .  S
C2873      C3700   1.539       .  S
C2874      H2881   1.086       .  S
C2874      C2875   1.366       .  D
C2875      C2876   1.543       .  S
C2875      C3109   1.481       .  S
C2876      C2880   1.537       .  S
C2876      C2878   1.546       .  S
C2876      H2882   1.108       .  S
C2877      H2883   1.081       .  S
C2877      C2878   1.374       .  D
C2878      C3124   1.498       .  S
C2879      H2884   1.087       .  S
C2879      C2880   1.355       .  D
C2880      C3097   1.476       .  S
O2885      C4184   1.259   1_545  A
O2885     Al2893   1.888       .  S
C2886      O4180   1.257       .  A
C2886      O2887   1.263       .  A
C2886      C3172   1.470       .  S
O2887     Al2889   1.916       .  S
O2888     Al2889   1.876       .  S
Al2889     O2897   1.887       .  S
Al2889     O4182   1.785       .  S
C2890      O4187   1.259       .  A
C2890      C3100   1.469       .  S
O2891      C2901   1.256       .  A
O2891     Al2893   1.876       .  S
O2892     Al2902   1.891       .  S
Al2893     O2906   1.916       .  S
Al2893     O2903   1.912       .  S
O2894      C2901   1.262       .  A
O2895      C4188   1.263       .  A
O2895     Al2902   1.916   1_565  S
O2896      C4170   1.257   1_545  A
O2896     Al2902   1.885       .  S
O2897      C2904   1.259       .  A
O2898     Al4173   1.785   1_545  S
O2898     Al2902   1.787       .  S
O2899      C2900   1.265       .  A
C2900      O4169   1.260       .  A
C2900      C3805   1.476       .  S
C2901      C3136   1.484       .  S
O2903      C4174   1.260   1_545  A
C2904      O4179   1.264       .  A
C2904      C3757   1.476       .  S
C2905      O2906   1.264       .  A
C2905      C3709   1.479       .  S
C2907      C2908   1.553       .  S
C2907      C2913   1.530       .  S
C2907      C2911   1.534       .  S
C2907      C4600   1.543   1_545  S
C2908      H2915   1.080       .  S
C2908      C2909   1.377       .  D
C2909      C2910   1.543       .  S
C2909      C3073   1.507       .  S
C2910      C2914   1.539       .  S
C2910      C2912   1.549       .  S
C2910      H2916   1.102       .  S
C2911      H2917   1.086       .  S
C2911      C2912   1.362       .  D
C2912      C3085   1.484       .  S
C2913      H2918   1.087       .  S
C2913      C2914   1.362       .  D
C2914      C3064   1.488       .  S
C2919      C2920   1.536       .  S
C2919      C2925   1.530       .  S
C2919      C2923   1.548       .  S
C2920      C2921   1.367       .  D
C2921      C2922   1.549       .  S
C2921      C3037   1.485       .  S
C2922      C2926   1.541       .  S
C2922      C2924   1.548       .  S
C2922      H2928   1.110       .  S
C2923      C2924   1.371       .  D
C2924      C3052   1.501       .  S
C2925      H2930   1.087       .  S
C2925      C2926   1.359       .  D
C2926      C3028   1.487       .  S
C2931      C2932   1.550       .  S
C2931      C2937   1.529       .  S
C2931      C2935   1.535       .  S
C2931      C3328   1.541       .  S
C2932      H2939   1.081       .  S
C2932      C2933   1.377       .  D
C2933      C2934   1.545       .  S
C2933      C3016   1.497       .  S
C2934      C2938   1.541       .  S
C2934      C2936   1.543       .  S
C2934      H2940   1.107       .  S
C2935      H2941   1.086       .  S
C2935      C2936   1.364       .  D
C2936      C3004   1.483       .  S
C2937      H2942   1.087       .  S
C2937      C2938   1.357       .  D
C2938      C2989   1.484       .  S
O2943      C2958   1.261       .  A
O2943     Al2951   1.900       .  S
C2944      O2954   1.259       .  A
C2944      O2945   1.259       .  A
C2944      C2992   1.491       .  S
O2945     Al2947   1.904       .  S
O2946      C2948   1.258       .  A
O2946     Al2947   1.899       .  S
Al2947     O2955   1.903       .  S
Al2947     O2957   1.915       .  S
Al2947     O2956   1.782       .  S
C2948      O2961   1.264       .  A
C2948      C3025   1.491       .  S
O2949      C2959   1.256       .  A
O2949     Al2951   1.882       .  S
O2950      C2963   1.263       .  A
O2950     Al2960   1.908       .  S
Al2951     O2964   1.913       .  S
Al2951     O2961   1.915       .  S
Al2951     O2956   1.784       .  S
O2952      C2959   1.261       .  A
O2952     Al2960   1.907       .  S
O2953      C2962   1.265       .  A
O2953     Al2960   1.908       .  S
O2954     Al2960   1.900       .  S
O2955      C2962   1.262       .  A
O2956     Al2960   1.782       .  S
O2957      C2958   1.265       .  A
C2958      C3448   1.493       .  S
C2959      C3061   1.460       .  S
C2962      C3400   1.494       .  S
C2963      O2964   1.261       .  A
C2963      C3352   1.495       .  S
C2965      C3112   1.490       .  S
C2965      C2966   1.413       .  A
C2965      C2970   1.404       .  A
C2966      C3196   1.484       .  S
C2966      C2967   1.406       .  A
C2967      C2968   1.409       .  A
C2967      H2972   1.084       .  S
C2968      C3001   1.497       .  S
C2968      C2969   1.416       .  A
C2969      C3040   1.480       .  S
C2969      C2970   1.402       .  A
C2970      H2971   1.085       .  S
C2973      C3121   1.485       .  S
C2973      C2974   1.413       .  A
C2973      C2978   1.405       .  A
C2974      C3157   1.484       .  S
C2974      C2975   1.404       .  A
C2975      C2976   1.402       .  A
C2975      H2980   1.085       .  S
C2976      C3013   1.482       .  S
C2976      C2977   1.412       .  A
C2977      C3088   1.485       .  S
C2977      C2978   1.404       .  A
C2978      H2979   1.085       .  S
C2981      C3184   1.489       .  S
C2981      C2982   1.414       .  A
C2981      C2986   1.405       .  A
C2982      C3148   1.486       .  S
C2982      C2983   1.406       .  A
C2983      C2984   1.404       .  A
C2983      H2988   1.085       .  S
C2984      C3049   1.486       .  S
C2984      C2985   1.416       .  A
C2985      C3076   1.487       .  S
C2985      C2986   1.406       .  A
C2986      H2987   1.085       .  S
C2989      C2990   1.402       .  A
C2989      C2994   1.408       .  A
C2990      C2991   1.396       .  A
C2990      H2999   1.085       .  S
C2991      C2992   1.419       .  A
C2991      S2995   1.803       .  S
C2992      C2993   1.410       .  A
C2993      C2994   1.402       .  A
C2993      H3000   1.083       .  S
C2994      S2996   1.797       .  S
S2995      H2998   1.408       .  S
S2996      H2997   1.405       .  S
C3001      C3002   1.405       .  A
C3001      C3006   1.418       .  A
C3002      C3003   1.400       .  A
C3002      H3011   1.077       .  S
C3003      C3004   1.408       .  A
C3003      S3007   1.798       .  S
C3004      C3005   1.401       .  A
C3005      C3006   1.400       .  A
C3005      H3012   1.084       .  S
C3006      S3008   1.805       .  S
S3007      H3010   1.405       .  S
S3008      H3009   1.407       .  S
C3013      C3014   1.400       .  A
C3013      C3018   1.411       .  A
C3014      C3015   1.404       .  A
C3014      H3023   1.082       .  S
C3015      C3016   1.418       .  A
C3015      S3019   1.802       .  S
C3016      C3017   1.407       .  A
C3017      C3018   1.399       .  A
C3017      H3024   1.084       .  S
C3018      S3020   1.805       .  S
S3019      H3022   1.407       .  S
S3020      H3021   1.405       .  S
C3025      C3026   1.403       .  A
C3025      C3030   1.423       .  A
C3026      C3027   1.393       .  A
C3026      H3035   1.084       .  S
C3027      C3028   1.415       .  A
C3027      S3031   1.802       .  S
C3028      C3029   1.402       .  A
C3029      C3030   1.407       .  A
C3029      H3036   1.084       .  S
C3030      S3032   1.802       .  S
S3031      H3034   1.401       .  S
S3032      H3033   1.408       .  S
C3037      C3038   1.404       .  A
C3037      C3042   1.414       .  A
C3038      C3039   1.401       .  A
C3038      H3047   1.085       .  S
C3039      C3040   1.416       .  A
C3039      S3043   1.810       .  S
C3040      C3041   1.402       .  A
C3041      C3042   1.400       .  A
C3041      H3048   1.084       .  S
C3042      S3044   1.800       .  S
S3043      H3046   1.402       .  S
S3044      H3045   1.404       .  S
C3049      C3050   1.402       .  A
C3049      C3054   1.415       .  A
C3050      C3051   1.405       .  A
C3050      H3059   1.083       .  S
C3051      C3052   1.419       .  A
C3051      S3055   1.808       .  S
C3052      C3053   1.403       .  A
C3053      C3054   1.403       .  A
C3053      H3060   1.077       .  S
C3054      S3056   1.807       .  S
S3055      H3058   1.406       .  S
S3056      H3057   1.403       .  S
C3061      C3062   1.398       .  A
C3061      C3066   1.404       .  A
C3062      C3063   1.400       .  A
C3062      H3071   1.083       .  S
C3063      C3064   1.414       .  A
C3063      S3067   1.801       .  S
C3064      C3065   1.410       .  A
C3065      C3066   1.395       .  A
C3065      H3072   1.084       .  S
C3066      S3068   1.802       .  S
S3067      H3070   1.406       .  S
S3068      H3069   1.406       .  S
C3073      C3074   1.412       .  A
C3073      C3078   1.421       .  A
C3074      C3075   1.403       .  A
C3074      H3083   1.083       .  S
C3075      C3076   1.410       .  A
C3075      S3079   1.803       .  S
C3076      C3077   1.396       .  A
C3077      C3078   1.401       .  A
C3077      H3084   1.077       .  S
C3078      S3080   1.799       .  S
S3079      H3082   1.406       .  S
S3080      H3081   1.408       .  S
C3085      C3086   1.401       .  A
C3085      C3090   1.417       .  A
C3086      C3087   1.398       .  A
C3086      H3095   1.081       .  S
C3087      C3088   1.412       .  A
C3087      S3091   1.804       .  S
C3088      C3089   1.403       .  A
C3089      C3090   1.402       .  A
C3089      H3096   1.083       .  S
C3090      S3092   1.806       .  S
S3091      H3094   1.406       .  S
S3092      H3093   1.400       .  S
C3097      C3098   1.404       .  A
C3097      C3102   1.409       .  A
C3098      C3099   1.395       .  A
C3098      H3107   1.083       .  S
C3099      C3100   1.411       .  A
C3100      C3101   1.404       .  A
C3101      C3102   1.398       .  A
C3101      H4392   1.084       .  S
C3102      S4388   1.798       .  S
S3103      H3106   1.407       .  S
S3104      C4386   1.799   1_545  S
S3104      H3105   1.406       .  S
H3108      C4385   1.083   1_545  S
C3110      C3111   1.402   1_455  A
C3111      C3112   1.414       .  A
C3111      S3115   1.808       .  S
C3112      C3113   1.405       .  A
C3113      C3114   1.399       .  A
C3113      H3120   1.081       .  S
S3115      H3118   1.407   1_655  S
S3116      H3117   1.402       .  S
C3121      C3122   1.400       .  A
C3121      C3126   1.407       .  A
C3122      C3123   1.405       .  A
C3122      H3131   1.082       .  S
C3123      C4408   1.419   1_545  A
C3123      S3127   1.802   1_545  S
C3124      C4407   1.418       .  A
C3124      C3125   1.409       .  A
C3125      C4410   1.401       .  A
C3125      H3132   1.082       .  S
C3126      C4409   1.402       .  A
C3126      S3128   1.806       .  S
S3127      H4414   1.407   1_565  S
S3128      H3129   1.407       .  S
H3130      S4411   1.406       .  S
C3133      C3134   1.410       .  A
C3133      C3138   1.414       .  A
C3134      C3135   1.399       .  A
C3134      H3143   1.084       .  S
C3135      C3136   1.412       .  A
C3135      S3139   1.800       .  S
C3136      C3137   1.406       .  A
C3137      C3138   1.400       .  A
C3137      H3144   1.082       .  S
C3138      S3140   1.804       .  S
S3139      H3142   1.408       .  S
S3140      H3141   1.406       .  S
C3145      C3146   1.410       .  A
C3146      H3155   1.082       .  S
C3147      C3148   1.407       .  A
C3147      S3151   1.806       .  S
C3148      C3149   1.399       .  A
C3149      C3150   1.405       .  A
C3149      H3156   1.082       .  S
C3150      S3152   1.799   1_655  S
S3151      H3154   1.407       .  S
C3157      C3158   1.404       .  A
C3157      C3162   1.412       .  A
C3158      C3159   1.404       .  A
C3158      H3167   1.084       .  S
C3159      C3160   1.417       .  A
C3159      S3163   1.807       .  S
C3160      C3161   1.399       .  A
C3161      C3162   1.397       .  A
C3161      H3168   1.080       .  S
C3162      S3164   1.805       .  S
S3163      H3166   1.401       .  S
S3164      H3165   1.405       .  S
C3169      C3170   1.408       .  A
C3169      C3174   1.412       .  A
C3170      C3171   1.396       .  A
C3170      H3179   1.084       .  S
C3171      C3172   1.407       .  A
C3171      S4459   1.804       .  S
C3172      C3173   1.405       .  A
C3173      C3174   1.405       .  A
C3173      H3180   1.083       .  S
C3174      S3176   1.806       .  S
S3175      C4455   1.804       .  S
S3175      H3178   1.407       .  S
S3176      H3177   1.407       .  S
C3181      C4466   1.401       .  A
C3181      C4470   1.412       .  A
C3182      C4465   1.401       .  A
C3182      C3183   1.402   1_565  A
C3182      H4475   1.082       .  S
C3183      C3184   1.416       .  A
C3183      S3187   1.804       .  S
C3184      C3185   1.403       .  A
C3185      C3186   1.402       .  A
C3185      H3192   1.084       .  S
C3186      C4465   1.412   1_545  A
C3186      S3188   1.798       .  S
S3187      H3190   1.406       .  S
S3188      H4473   1.402       .  S
H3189      S4472   1.402       .  S
H3191      C4466   1.083       .  S
C3193      C3194   1.405       .  A
C3193      C3198   1.414       .  A
C3194      C3195   1.405       .  A
C3194      H3203   1.083       .  S
C3195      C3196   1.414       .  A
C3195      S3199   1.805       .  S
C3196      C3197   1.402       .  A
C3197      C3198   1.396       .  A
C3197      H3204   1.085       .  S
C3198      S3200   1.805       .  S
S3199      H3202   1.404       .  S
S3200      H3201   1.405       .  S
C3205      C3206   1.403       .  A
C3205      C3210   1.423       .  A
C3206      C3207   1.398       .  A
C3206      H3215   1.083       .  S
C3207      C3208   1.411       .  A
C3208      C3209   1.397       .  A
C3209      C3210   1.398       .  A
C3209      H3216   1.084       .  S
C3210      S3212   1.805       .  S
S3211      H3214   1.404       .  S
S3212      H3213   1.397       .  S
C3217      C3218   1.408   1_655  A
C3218      H3227   1.084   1_455  S
C3219      C3220   1.414       .  A
C3219      S3223   1.811       .  S
C3220      C3221   1.405       .  A
C3221      C3222   1.412       .  A
C3221      H3228   1.083       .  S
C3222      S3224   1.804       .  S
S3223      H3226   1.402       .  S
C3229      C3230   1.401       .  A
C3229      C4518   1.418       .  A
C3230      C3231   1.398       .  A
C3230      H3239   1.083       .  S
C3231      C4516   1.412       .  A
C3231      S3235   1.794       .  S
C3232      C4515   1.413   1_545  A
C3232      C3233   1.401       .  A
C3233      C3234   1.402       .  A
C3233      H3240   1.084       .  S
C3234      C4513   1.419   1_545  A
C3234      S3236   1.806       .  S
S3235      H4522   1.403       .  S
S3236      H4521   1.404   1_545  S
H3237      S4520   1.403       .  S
H3238      S4519   1.403   1_545  S
C3241      C3242   1.409       .  A
C3241      C3246   1.412       .  A
C3242      C3243   1.397       .  A
C3242      H3251   1.084       .  S
C3243      C3244   1.407       .  A
C3243      S3247   1.804       .  S
C3244      C3245   1.404       .  A
C3245      C3246   1.404       .  A
C3245      H3252   1.084       .  S
C3246      S3248   1.806       .  S
S3247      H3250   1.407       .  S
S3248      H3249   1.407       .  S
C3253      C3254   1.405       .  A
C3253      C3258   1.415       .  A
C3254      H3263   1.084       .  S
C3255      C3256   1.412       .  A
C3255      S3259   1.805       .  S
C3257      C3258   1.409       .  A
C3257      H3264   1.083       .  S
C3258      S3260   1.803       .  S
S3259      H3262   1.403       .  S
S3260      H3261   1.407       .  S
C3265      C3266   1.402       .  A
C3265      C3270   1.414       .  A
C3266      C3267   1.399       .  A
C3266      H3275   1.084       .  S
C3267      C3268   1.417       .  A
C3267      S3271   1.805       .  S
C3268      C3269   1.406       .  A
C3269      C3270   1.407       .  A
C3269      H3276   1.082       .  S
C3270      S3272   1.801       .  S
S3271      H3274   1.407       .  S
S3272      H3273   1.405       .  S
C3277      C3278   1.400       .  A
C3277      C3282   1.417       .  A
C3278      C3279   1.399       .  A
C3278      H3287   1.084       .  S
C3279      C3280   1.413       .  A
C3279      S3283   1.795   1_545  S
C3280      C3281   1.400       .  A
C3281      C3282   1.396       .  A
C3281      H3288   1.084       .  S
C3282      S3284   1.806       .  S
S3283      H4570   1.403       .  S
S3284      H3285   1.402       .  S
H3286      S4567   1.405       .  S
C3289      C3290   1.412       .  A
C3289      C3294   1.426       .  A
C3290      C4575   1.396   1_545  A
C3290      H3299   1.082       .  S
C3291      C4574   1.395       .  A
C3291      C3292   1.412       .  A
C3291      S3295   1.809       .  S
C3292      C3293   1.402       .  A
C3293      C4578   1.406       .  A
C3293      H3300   1.084       .  S
C3294      C4577   1.406   1_545  A
C3294      S3296   1.797       .  S
S3295      H3298   1.404       .  S
S3296      H3297   1.390       .  S
C3301      C3302   1.402       .  A
C3301      C3306   1.416       .  A
C3302      C3303   1.402       .  A
C3302      H3311   1.082       .  S
C3303      C3304   1.415       .  A
C3303      S3307   1.797       .  S
C3304      C3305   1.406       .  A
C3305      C3306   1.399       .  A
C3305      H3312   1.084       .  S
C3306      S3308   1.810       .  S
S3307      H3310   1.407       .  S
S3308      H3309   1.399       .  S
C3313      C3314   1.398       .  A
C3313      C3318   1.409       .  A
C3314      C3315   1.403       .  A
C3314      H3323   1.083       .  S
C3315      C3316   1.428       .  A
C3315      S4603   1.812       .  S
C3316      C4191   1.543       .  S
C3316      C3317   1.414       .  A
C3317      C3318   1.402       .  A
C3317      H3324   1.074       .  S
C3318      S3320   1.804       .  S
S3319      C4599   1.812       .  S
S3319      H3322   1.406       .  S
S3320      H3321   1.407       .  S
C3325      C3326   1.398       .  A
C3325      C3330   1.409       .  A
C3326      C3327   1.402       .  A
C3326      H3335   1.083       .  S
C3327      C3328   1.428       .  A
C3327      S3331   1.814       .  S
C3328      C3329   1.412       .  A
C3329      C3330   1.403       .  A
C3329      H3336   1.076       .  S
C3330      S3332   1.801       .  S
S3331      H3334   1.406       .  S
S3332      H3333   1.407       .  S
C3337      C3338   1.412       .  A
C3337      C3342   1.425       .  A
C3338      C3339   1.406       .  A
C3338      H3347   1.077       .  S
C3339      C3340   1.417       .  A
C3339      S3343   1.810       .  S
C3340      C3341   1.405       .  A
C3341      C3342   1.404       .  A
C3341      H3348   1.082       .  S
C3342      S3344   1.813       .  S
S3343      H3346   1.406       .  S
C3349      C3350   1.411       .  A
C3349      C3354   1.422       .  A
C3350      C3351   1.396       .  A
C3350      H3359   1.084       .  S
C3351      C3352   1.417       .  A
C3351      S3355   1.802       .  S
C3352      C3353   1.407       .  A
C3353      C3354   1.406       .  A
C3353      H3360   1.084       .  S
C3354      S3356   1.797       .  S
S3355      H3358   1.408       .  S
S3356      H3357   1.408       .  S
C3361      C3362   1.409       .  A
C3361      C3366   1.414       .  A
C3362      C3363   1.396       .  A
C3362      H3371   1.084       .  S
C3363      C3364   1.410       .  A
C3363      S3367   1.804       .  S
C3364      C3365   1.405       .  A
C3365      C3366   1.402       .  A
C3365      H3372   1.079       .  S
C3366      S3368   1.806       .  S
S3367      H3370   1.408       .  S
S3368      H3369   1.407       .  S
C3373      C3374   1.401       .  A
C3373      C3378   1.416       .  A
C3374      C3375   1.402       .  A
C3374      H3383   1.081       .  S
C3375      C3376   1.416       .  A
C3375      S3379   1.809       .  S
C3376      C3377   1.401       .  A
C3377      C3378   1.400       .  A
C3377      H3384   1.084       .  S
C3378      S3380   1.805       .  S
S3379      H3382   1.402       .  S
S3380      H3381   1.404       .  S
C3385      C3386   1.402       .  A
C3385      C3390   1.411       .  A
C3386      C3387   1.403       .  A
C3386      H3395   1.083       .  S
C3387      C3388   1.415       .  A
C3387      S3391   1.801       .  S
C3388      C3389   1.402       .  A
C3389      C3390   1.406       .  A
C3389      H3396   1.080       .  S
C3390      S3392   1.805       .  S
S3391      H3394   1.403       .  S
S3392      H3393   1.407       .  S
C3397      C3398   1.414       .  A
C3397      C3402   1.423       .  A
C3398      C3399   1.408       .  A
C3398      H3407   1.074       .  S
C3399      C3400   1.414       .  A
C3399      S3403   1.810       .  S
C3400      C3401   1.404       .  A
C3401      C3402   1.399       .  A
C3401      H3408   1.082       .  S
C3402      S3404   1.811       .  S
S3403      H3406   1.406       .  S
S3404      H3405   1.406       .  S
C3409      C3410   1.399       .  A
C3409      C3414   1.414       .  A
C3410      C3411   1.400       .  A
C3410      H3419   1.085       .  S
C3411      C3412   1.421       .  A
C3411      S3415   1.799       .  S
C3412      C3413   1.404       .  A
C3413      C3414   1.395       .  A
C3413      H3420   1.084       .  S
C3414      S3416   1.807       .  S
S3415      H3418   1.387       .  S
S3416      H3417   1.398       .  S
C3421      C3422   1.405       .  A
C3421      C3426   1.422       .  A
C3422      C3423   1.402       .  A
C3422      H3431   1.080       .  S
C3423      C3424   1.415       .  A
C3423      S3427   1.793       .  S
C3424      C3425   1.402       .  A
C3425      C3426   1.400       .  A
C3425      H3432   1.084       .  S
C3426      S3428   1.806       .  S
S3427      H3430   1.400       .  S
S3428      H3429   1.406       .  S
C3433      C3434   1.408       .  A
C3433      C3438   1.418       .  A
C3434      C3435   1.399       .  A
C3434      H3443   1.084       .  S
C3435      C3436   1.410       .  A
C3435      S3439   1.805       .  S
C3436      C3437   1.401       .  A
C3437      C3438   1.407       .  A
C3437      H3444   1.080       .  S
C3438      S3440   1.802       .  S
S3439      H3442   1.406       .  S
S3440      H3441   1.407       .  S
C3445      C3446   1.413       .  A
C3445      C3450   1.425       .  A
C3446      C3447   1.408       .  A
C3446      H3455   1.074       .  S
C3447      C3448   1.415       .  A
C3447      S3451   1.810       .  S
C3448      C3449   1.402       .  A
C3449      C3450   1.399       .  A
C3449      H3456   1.082       .  S
C3450      S3452   1.814       .  S
S3451      H3454   1.406       .  S
S3452      H3453   1.406       .  S
C3457      C3458   1.400       .  A
C3457      C3462   1.414       .  A
C3458      C3459   1.405       .  A
C3458      H3467   1.083       .  S
C3459      C3460   1.421       .  A
C3459      S3463   1.808       .  S
C3460      C3461   1.403       .  A
C3461      C3462   1.401       .  A
C3461      H3468   1.082       .  S
C3462      S3464   1.808       .  S
S3463      H3466   1.407       .  S
S3464      H3465   1.406       .  S
C3469      C3470   1.402       .  A
C3469      C3474   1.415       .  A
C3470      C3471   1.402       .  A
C3470      H3479   1.082       .  S
C3471      C3472   1.415       .  A
C3471      S3475   1.806       .  S
C3472      C3473   1.403       .  A
C3473      C3474   1.403       .  A
C3473      H3480   1.083       .  S
C3474      S3476   1.803       .  S
S3475      H3478   1.402       .  S
S3476      H3477   1.402       .  S
C3481      C3482   1.403       .  A
C3481      C3486   1.412       .  A
C3482      C3483   1.399       .  A
C3482      H3491   1.084       .  S
C3483      C3484   1.418       .  A
C3483      S3487   1.803       .  S
C3484      C3485   1.410       .  A
C3485      C3486   1.407       .  A
C3485      H3492   1.081       .  S
C3486      S3488   1.803       .  S
S3488      H3489   1.405       .  S
C3493      C3494   1.405       .  A
C3493      C3498   1.414       .  A
C3494      C3495   1.401       .  A
C3494      H3503   1.082       .  S
C3495      C3496   1.424       .  A
C3495      S3499   1.810       .  S
C3496      C3497   1.415       .  A
C3497      C3498   1.403       .  A
C3497      H3504   1.075       .  S
C3498      S3500   1.802       .  S
S3499      H3502   1.407       .  S
S3500      H3501   1.408       .  S
C3505      C3506   1.402       .  A
C3505      C3510   1.409       .  A
C3506      C3507   1.407       .  A
C3506      H3515   1.084       .  S
C3507      C3508   1.424       .  A
C3507      S3511   1.798       .  S
C3508      C3509   1.412       .  A
C3509      C3510   1.394       .  A
C3509      H3516   1.084       .  S
C3510      S3512   1.801       .  S
S3511      H3514   1.408       .  S
S3512      H3513   1.407       .  S
C3517      C3518   1.398       .  A
C3517      C3522   1.407       .  A
C3518      C3519   1.399       .  A
C3518      H3527   1.083       .  S
C3519      C3520   1.428       .  A
C3519      S3523   1.815       .  S
C3520      C3521   1.413       .  A
C3521      C3522   1.402       .  A
C3521      H3528   1.076       .  S
C3522      S3524   1.803       .  S
S3523      H3526   1.406       .  S
S3524      H3525   1.407       .  S
C3529      C3530   1.412       .  A
C3529      C3534   1.426       .  A
C3530      C3531   1.400       .  A
C3530      H3539   1.076       .  S
C3531      C3532   1.409       .  A
C3531      S4819   1.804   1_545  S
C3532      C3533   1.398       .  A
C3533      C3534   1.398       .  A
C3533      H3540   1.083       .  S
C3534      S3536   1.813       .  S
S3535      C4815   1.804       .  S
S3535      H3538   1.407       .  S
S3536      H3537   1.407       .  S
C3541      C3542   1.404       .  A
C3541      C3546   1.409       .  A
C3542      C3543   1.397       .  A
C3542      H3551   1.084       .  S
C3543      C3544   1.415       .  A
C3543      S3547   1.800       .  S
C3544      C3545   1.410       .  A
C3545      C3546   1.401       .  A
C3545      H3552   1.082       .  S
C3546      S3548   1.806       .  S
S3547      H3550   1.407       .  S
S3548      H3549   1.407       .  S
C3553      C3554   1.403       .  A
C3553      C3558   1.413       .  A
C3554      C3555   1.401       .  A
C3554      H3563   1.085       .  S
C3555      C3556   1.415       .  A
C3556      C3557   1.403       .  A
C3557      C3558   1.398       .  A
C3557      H3564   1.085   1_554  S
C3558      S3560   1.802       .  S
S3559      H3562   1.404       .  S
S3560      H3561   1.403       .  S
C3565      C3566   1.409       .  A
C3565      C3570   1.424       .  A
C3566      C3567   1.395       .  A
C3566      H3575   1.084       .  S
C3567      C3568   1.413       .  A
C3567      S3571   1.801       .  S
C3568      C3569   1.403       .  A
C3569      C3570   1.406       .  A
C3569      H3576   1.084       .  S
C3570      S3572   1.799       .  S
S3571      H3574   1.406       .  S
S3572      H3573   1.408       .  S
C3577      C3578   1.405       .  A
C3577      C3582   1.420       .  A
C3578      C3579   1.399       .  A
C3578      H3587   1.084       .  S
C3579      C3580   1.416       .  A
C3579      S3583   1.805       .  S
C3580      C3581   1.400       .  A
C3581      C3582   1.400       .  A
C3581      H3588   1.084       .  S
C3582      S3584   1.799       .  S
S3583      H3586   1.407       .  S
S3584      H3585   1.407       .  S
C3589      C3590   1.409       .  A
C3589      C3594   1.422       .  A
C3590      C3591   1.402       .  A
C3590      H3599   1.082       .  S
C3591      C3592   1.408       .  A
C3591      S3595   1.806       .  S
C3592      C3593   1.398       .  A
C3593      C3594   1.407       .  A
C3593      H3600   1.082       .  S
C3594      S3596   1.800       .  S
S3595      H3598   1.406       .  S
S3596      H3597   1.407       .  S
C3601      C3602   1.401       .  A
C3601      C3606   1.413       .  A
C3602      C3603   1.400       .  A
C3602      H3611   1.081       .  S
C3603      C3604   1.412       .  A
C3603      S3607   1.805   1_554  S
C3604      C3605   1.402       .  A
C3605      C3606   1.400       .  A
C3605      H3612   1.081       .  S
C3606      S3608   1.805       .  S
S3607      H3610   1.405       .  S
S3608      H3609   1.401       .  S
C3613      C3614   1.413       .  A
C3613      C3618   1.423       .  A
C3614      C3615   1.409       .  A
C3614      H3623   1.074       .  S
C3615      C3616   1.416       .  A
C3615      S3619   1.810   1_545  S
C3616      C3617   1.404       .  A
C3617      C3618   1.397       .  A
C3617      H3624   1.081       .  S
C3618      S3620   1.815       .  S
S3619      H4906   1.406       .  S
S3620      H3621   1.406       .  S
H3622      S4903   1.407       .  S
C3625      C3626   1.399       .  A
C3625      C3630   1.411       .  A
C3626      C3627   1.398       .  A
C3626      H3635   1.083       .  S
C3627      C3628   1.420       .  A
C3627      S3631   1.801       .  S
C3628      C3629   1.406       .  A
C3629      C3630   1.394       .  A
C3629      H3636   1.084       .  S
C3630      S3632   1.805       .  S
S3631      H3634   1.408       .  S
S3632      H3633   1.407       .  S
C3637      C3638   1.404       .  A
C3637      C3642   1.414       .  A
C3638      C3639   1.403       .  A
C3638      H3647   1.084       .  S
C3639      C3640   1.417       .  A
C3639      S3643   1.807       .  S
C3640      C3641   1.400       .  A
C3641      C3642   1.397       .  A
C3641      H3648   1.083       .  S
C3642      S3644   1.804   1_554  S
S3643      H3646   1.397       .  S
S3644      H3645   1.406       .  S
C3649      C3650   1.400       .  A
C3649      C3654   1.415       .  A
C3650      C3651   1.397       .  A
C3650      H3659   1.077       .  S
C3651      C3652   1.413       .  A
C3651      S3655   1.809   1_554  S
C3652      C3653   1.401       .  A
C3653      C3654   1.398       .  A
C3653      H3660   1.084       .  S
C3654      S3656   1.806       .  S
S3655      H3658   1.402       .  S
S3656      H3657   1.405       .  S
C3661      C3662   1.411       .  A
C3661      C3666   1.420       .  A
C3662      C3663   1.400       .  A
C3662      H3671   1.083       .  S
C3663      C3664   1.409       .  A
C3663      S4951   1.804   1_545  S
C3664      C3665   1.397       .  A
C3665      C3666   1.401       .  A
C3665      H3672   1.078       .  S
C3666      S3668   1.801       .  S
S3667      C4947   1.804       .  S
S3667      H3670   1.406       .  S
S3668      H3669   1.407       .  S
C3673      C3674   1.406       .  A
C3673      C3678   1.418       .  A
C3674      C3675   1.409       .  A
C3674      H3683   1.084       .  S
C3675      C3676   1.425       .  A
C3675      S3679   1.798       .  S
C3676      C3677   1.407       .  A
C3677      C3678   1.392       .  A
C3677      H3684   1.085       .  S
C3678      S3680   1.804       .  S
S3679      H3682   1.408       .  S
S3680      H3681   1.408       .  S
C3685      C3686   1.400       .  A
C3685      C3690   1.408       .  A
C3686      C3687   1.401       .  A
C3686      H3695   1.082       .  S
C3687      C3688   1.426       .  A
C3687      S3691   1.813       .  S
C3688      C3689   1.416       .  A
C3689      C3690   1.405       .  A
C3689      H3696   1.074       .  S
C3690      S3692   1.804       .  S
S3691      H3694   1.407       .  S
S3692      H3693   1.407       .  S
C3697      C3698   1.404       .  A
C3697      C3702   1.414       .  A
C3698      C3699   1.399       .  A
C3698      H3707   1.082       .  S
C3699      C3700   1.423       .  A
C3699      S3703   1.812       .  S
C3700      C3701   1.412       .  A
C3701      C3702   1.403       .  A
C3701      H3708   1.077       .  S
C3702      S3704   1.803       .  S
S3703      H3706   1.407       .  S
S3704      H3705   1.408       .  S
C3709      C3710   1.397       .  A
C3709      C3714   1.409       .  A
C3710      C3711   1.399       .  A
C3710      H3719   1.083       .  S
C3711      C3712   1.428       .  A
C3711      S3715   1.811       .  S
C3712      C3713   1.413       .  A
C3713      C3714   1.405       .  A
C3713      H3720   1.075       .  S
C3714      S3716   1.809       .  S
S3715      H3718   1.407       .  S
S3716      H3717   1.406       .  S
C3721      C3722   1.403       .  A
C3721      C3726   1.415       .  A
C3722      C3723   1.403       .  A
C3722      H3731   1.084       .  S
C3723      C3724   1.418       .  A
C3723      S3727   1.802       .  S
C3724      C3725   1.404       .  A
C3725      C3726   1.398       .  A
C3725      H3732   1.082       .  S
C3726      S3728   1.810       .  S
S3727      H3730   1.406       .  S
S3728      H3729   1.407       .  S
C3733      C3734   1.407       .  A
C3733      C3738   1.419       .  A
C3734      C3735   1.397       .  A
C3734      H3743   1.084       .  S
C3735      C3736   1.410       .  A
C3735      S3739   1.805       .  S
C3736      C3737   1.400       .  A
C3737      C3738   1.404       .  A
C3737      H3744   1.083       .  S
C3738      S3740   1.801       .  S
S3739      H3742   1.406       .  S
S3740      H3741   1.407       .  S
C3745      C3746   1.407       .  A
C3745      C3750   1.420       .  A
C3746      C3747   1.401       .  A
C3747      C3748   1.407       .  A
C3747      S3751   1.799       .  S
C3748      C3749   1.400       .  A
C3749      C3750   1.400       .  A
C3749      H3756   1.084       .  S
C3750      S3752   1.807   1_556  S
S3751      H3754   1.404       .  S
S3752      H3753   1.401       .  S
C3757      C3758   1.398       .  A
C3757      C3762   1.407       .  A
C3758      C3759   1.400       .  A
C3758      H3767   1.083       .  S
C3759      C3760   1.427       .  A
C3759      S3763   1.813       .  S
C3760      C3761   1.413       .  A
C3761      C3762   1.401       .  A
C3761      H3768   1.076       .  S
C3762      S5048   1.804       .  S
S3763      H3766   1.407       .  S
S3764      C5046   1.804   1_545  S
S3764      H3765   1.407       .  S
C3769      C3770   1.409       .  A
C3769      C3774   1.416       .  A
C3770      C3771   1.404       .  A
C3770      H3779   1.082       .  S
C3771      C3772   1.410       .  A
C3771      S3775   1.806       .  S
C3772      C3773   1.406       .  A
C3773      C3774   1.400       .  A
C3773      H3780   1.082       .  S
C3774      S3776   1.811       .  S
S3775      H3778   1.407       .  S
S3776      H3777   1.406       .  S
C3781      C3782   1.399       .  A
C3781      C3786   1.411       .  A
C3782      C3783   1.396       .  A
C3782      H3791   1.082       .  S
C3783      C3784   1.415       .  A
C3783      S3787   1.802   1_556  S
C3784      C3785   1.407       .  A
C3785      C3786   1.403       .  A
C3785      H3792   1.083       .  S
C3786      S3788   1.799       .  S
S3787      H3790   1.407       .  S
S3788      H3789   1.404       .  S
C3793      C3794   1.408       .  A
C3793      C3798   1.416       .  A
C3794      C3795   1.400       .  A
C3794      H3803   1.083       .  S
C3795      C3796   1.413       .  A
C3795      S5083   1.805       .  S
C3796      C3797   1.402       .  A
C3797      C3798   1.405       .  A
C3797      H3804   1.079       .  S
C3798      S3800   1.801       .  S
S3799      C5079   1.804   1_545  S
S3799      H3802   1.400       .  S
S3800      H3801   1.407       .  S
C3805      C3806   1.402       .  A
C3805      C3810   1.409       .  A
C3806      C3807   1.405       .  A
C3806      H3815   1.084       .  S
C3807      C3808   1.424       .  A
C3807      S3811   1.799       .  S
C3808      C3809   1.411       .  A
C3809      C3810   1.393       .  A
C3809      H3816   1.084       .  S
C3810      S3812   1.801       .  S
S3811      H3814   1.408       .  S
S3812      H3813   1.406       .  S
C3817      C3818   1.401       .  A
C3817      C3822   1.413       .  A
C3818      C3819   1.401       .  A
C3818      H3827   1.084       .  S
C3819      C3820   1.420       .  A
C3819      S3823   1.802       .  S
C3820      C3821   1.406       .  A
C3821      C3822   1.395       .  A
C3821      H3828   1.083       .  S
C3822      S3824   1.806       .  S
S3823      H3826   1.406       .  S
S3824      H3825   1.407       .  S
C3829      C3830   1.405       .  A
C3829      C3834   1.411       .  A
C3830      C3831   1.400       .  A
C3831      C3832   1.412       .  A
C3831      S3835   1.805       .  S
C3832      C3833   1.399       .  A
C3833      C3834   1.396       .  A
C3833      H3840   1.080       .  S
C3834      S3836   1.803       .  S
S3835      H3838   1.401       .  S
S3836      H3837   1.401   1_556  S
C3841      C3842   1.409       .  A
C3841      C3846   1.420       .  A
C3842      C3843   1.399       .  A
C3842      H3851   1.083       .  S
C3843      C3844   1.412       .  A
C3843      S5131   1.809       .  S
C3844      C3845   1.399       .  A
C3845      C3846   1.403       .  A
C3845      H3852   1.079       .  S
C3846      S3848   1.801       .  S
S3847      C5127   1.810   1_545  S
S3847      H3850   1.399       .  S
S3848      H3849   1.406       .  S
C3853      C3854   1.540       .  S
C3853      C3859   1.537       .  S
C3853      C3857   1.541       .  S
C3853      C5092   1.543       .  S
C3854      H3861   1.076       .  S
C3854      C3855   1.364       .  D
C3855      C3856   1.542       .  S
C3855      C5116   1.476       .  S
C3856      C3860   1.535       .  S
C3856      C3858   1.540       .  S
C3856      H3862   1.106       .  S
C3857      H3863   1.086       .  S
C3857      C3858   1.374       .  D
C3858      C5125   1.502       .  S
C3859      H3864   1.087       .  S
C3859      C3860   1.360       .  D
C3860      C5101   1.483       .  S
C3865      C3866   1.547       .  S
C3865      C3871   1.530       .  S
C3865      C3869   1.534       .  S
C3865      C5044   1.538       .  S
C3866      H3873   1.081       .  S
C3866      C3867   1.375       .  D
C3867      C3868   1.548       .  S
C3867      C5077   1.501       .  S
C3868      C3872   1.541       .  S
C3868      C3870   1.543       .  S
C3868      H3874   1.107       .  S
C3869      H3875   1.086       .  S
C3869      C3870   1.361       .  D
C3870      C5065   1.478       .  S
C3871      H3876   1.087       .  S
C3871      C3872   1.360       .  D
C3872      C5056   1.488       .  S
C3877      C3878   1.549       .  S
C3877      C3883   1.526       .  S
C3877      C3881   1.535       .  S
C3877      C4996   1.540       .  S
C3878      H3885   1.082       .  S
C3878      C3879   1.379       .  D
C3879      C3880   1.547       .  S
C3879      C5017   1.503       .  S
C3880      C3884   1.540       .  S
C3880      C3882   1.543       .  S
C3880      H3886   1.107       .  S
C3881      H3887   1.086       .  S
C3881      C3882   1.362       .  D
C3882      C5032   1.480       .  S
C3883      H3888   1.087       .  S
C3883      C3884   1.356       .  D
C3884      C5005   1.484       .  S
O3889      C3904   1.261       .  A
O3889     Al3897   1.897       .  S
C3890      O3900   1.256       .  A
C3890      O3891   1.259       .  A
C3890      C5008   1.484       .  S
O3891     Al3893   1.893       .  S
O3892      C3894   1.257       .  A
O3892     Al3893   1.898       .  S
Al3893     O3901   1.887       .  S
Al3893     O3903   1.909       .  S
Al3893     O3902   1.780       .  S
C3894      O3907   1.260       .  A
C3894      C5104   1.484       .  S
O3895      C3905   1.260       .  A
O3895     Al3897   1.885       .  S
O3896      C3909   1.264       .  A
O3896     Al3906   1.920       .  S
Al3897     O3910   1.885       .  S
Al3897     O3907   1.906       .  S
Al3897     O3902   1.781       .  S
O3898      C3905   1.264       .  A
O3898     Al3906   1.915       .  S
O3899      C3908   1.267       .  A
O3899     Al3906   1.929       .  S
O3900     Al3906   1.899       .  S
O3901      C3908   1.261       .  A
O3902     Al3906   1.788       .  S
O3903      C3904   1.265       .  A
C3904      C4981   1.489       .  S
C3905      C5053   1.484       .  S
C3908      C4969   1.483       .  S
C3909      O3910   1.256       .  A
C3909      C4957   1.490       .  S
C3911      C5128   1.478       .  S
C3911      C3912   1.416       .  A
C3912      C5080   1.485       .  S
C3913      C3914   1.401   1_556  A
C3913      H3918   1.085       .  S
C3914      C4936   1.474       .  S
C3914      C3915   1.410       .  A
C3915      C4948   1.483       .  S
C3915      C3916   1.401   1_554  A
C3916      H3917   1.085       .  S
C3919      C3920   1.535       .  S
C3919      C3925   1.533       .  S
C3919      C3923   1.548       .  S
C3919      C4897   1.539       .  S
C3920      H3927   1.086       .  S
C3920      C3921   1.362       .  D
C3921      C3922   1.542       .  S
C3921      C4924   1.475       .  S
C3922      C3926   1.531       .  S
C3922      C3924   1.544       .  S
C3922      H3928   1.107       .  S
C3923      H3929   1.080       .  S
C3923      C3924   1.376       .  D
C3924      C4945   1.501       .  S
C3925      H3930   1.087       .  S
C3925      C3926   1.358       .  D
C3926      C4909   1.474       .  S
C3931      C3932   1.541       .  S
C3931      C3937   1.537       .  S
C3931      C3935   1.541       .  S
C3931      C4849   1.547       .  S
C3932      H3939   1.076       .  S
C3932      C3933   1.366       .  D
C3933      C3934   1.545       .  S
C3933      C4885   1.483       .  S
C3934      C3938   1.536       .  S
C3934      C3936   1.544       .  S
C3934      H3940   1.105       .  S
C3935      H3941   1.086       .  S
C3935      C3936   1.377       .  D
C3936      C4873   1.509       .  S
C3937      H3942   1.087       .  S
C3937      C3938   1.358       .  D
C3938      C4864   1.482       .  S
C3943      C3944   1.546       .  S
C3943      C3949   1.532       .  S
C3943      C3947   1.535       .  S
C3943      C4813   1.537       .  S
C3944      H3951   1.081       .  S
C3944      C3945   1.371       .  D
C3945      C3946   1.542       .  S
C3945      C4933   1.486       .  S
C3946      C3950   1.540       .  S
C3946      C3948   1.542       .  S
C3946      H3952   1.110       .  S
C3947      H3953   1.086       .  S
C3947      C3948   1.363       .  D
C3948      C4837   1.482       .  S
C3949      H3954   1.087       .  S
C3949      C3950   1.360       .  D
C3950      C4825   1.486       .  S
O3955      C3970   1.263       .  A
O3955     Al3963   1.907       .  S
C3956      O3966   1.252       .  A
C3956      O3957   1.262       .  A
C3956      C4912   1.483       .  S
O3957     Al3959   1.914       .  S
O3958      C3960   1.258       .  A
O3958     Al3959   1.880       .  S
Al3959     O3967   1.884       .  S
Al3959     O3969   1.902       .  S
Al3959     O3968   1.776       .  S
C3960      O3973   1.264       .  A
C3960      C4828   1.489       .  S
O3961      C3971   1.259       .  A
O3961     Al3963   1.894       .  S
O3962      C3975   1.256       .  A
O3962     Al3972   1.879       .  S
Al3963     O3976   1.934       .  S
Al3963     O3973   1.929       .  S
Al3963     O3968   1.782       .  S
O3964      C3971   1.265       .  A
O3964     Al3972   1.919       .  S
O3965      C3974   1.266       .  A
O3965     Al3972   1.924       .  S
O3966     Al3972   1.875       .  S
O3967      C3974   1.260       .  A
O3968     Al3972   1.776       .  S
O3969      C3970   1.264       .  A
C3970      C4777   1.493       .  S
C3971      C4861   1.489       .  S
C3974      C4801   1.476       .  S
C3975      O3976   1.266       .  A
C3975      C4789   1.474       .  S
C3977      C5029   1.491       .  S
C3977      C3978   1.418       .  A
C3978      C5113   1.482       .  S
C3979      C3980   1.400   1_556  A
C3979      H3984   1.085       .  S
C3980      C4888   1.481       .  S
C3980      C3981   1.414       .  A
C3981      C4840   1.484       .  S
C3981      C3982   1.405   1_554  A
C3982      H3983   1.085       .  S
C3985      C5020   1.486       .  S
C3985      C3986   1.412       .  A
C3985      C3990   1.403       .  A
C3986      C5068   1.485       .  S
C3986      C3987   1.406       .  A
C3987      C3988   1.404   1_556  A
C3987      H3992   1.085       .  S
C3988      C4876   1.489       .  S
C3988      C3989   1.412       .  A
C3989      C4921   1.481       .  S
C3989      C3990   1.405   1_554  A
C3990      H3991   1.085       .  S
C3993      C4729   1.545       .  S
C3994      C3995   1.363       .  D
C3995      C3996   1.542       .  S
C3995      C4753   1.480       .  S
C3996      C4000   1.540       .  S
C3996      C3998   1.540       .  S
C3996      H4002   1.110       .  S
C3997      C3998   1.377       .  D
C3998      C4768   1.501       .  S
C3999      H4004   1.086       .  S
C3999      C4000   1.360       .  D
C4000      C4741   1.486       .  S
C4005      C4006   1.541       .  S
C4005      C4011   1.528       .  S
C4005      C4009   1.548       .  S
C4005      C4681   1.543       .  S
C4006      H4013   1.086       .  S
C4006      C4007   1.371       .  D
C4007      C4008   1.548       .  S
C4007      C4708   1.493       .  S
C4008      C4012   1.543       .  S
C4008      C4010   1.547       .  S
C4008      H4014   1.108       .  S
C4009      H4015   1.080       .  S
C4009      C4010   1.372       .  D
C4010      C4717   1.503       .  S
C4011      H4016   1.088       .  S
C4011      C4012   1.352       .  D
C4012      C4693   1.474       .  S
C4017      C4018   1.547       .  S
C4017      C4021   1.543       .  S
C4017      C4633   1.544       .  S
C4018      H4025   1.082       .  S
C4019      C4020   1.541       .  S
C4019      C4657   1.482       .  S
C4020      C4024   1.540       .  S
C4020      C4022   1.539       .  S
C4020      H4026   1.109       .  S
C4021      H4027   1.085       .  S
C4022      C4672   1.493       .  S
C4023      H4028   1.087   1_565  S
C4023      C4024   1.365       .  D
C4024      C4645   1.490       .  S
O4029      C4044   1.265       .  A
O4029     Al4037   1.898       .  S
C4030      O4040   1.258       .  A
C4030      O4031   1.260       .  A
C4030      C4696   1.487       .  S
O4031     Al4033   1.922       .  S
O4032      C4034   1.256       .  A
O4032     Al4033   1.891       .  S
Al4033     O4041   1.893       .  S
Al4033     O4043   1.918       .  S
Al4033     O4042   1.784       .  S
C4034      O4047   1.256       .  A
C4034      C4648   1.480       .  S
O4035      C4045   1.259       .  A
O4035     Al4037   1.889       .  S
O4036      C4049   1.259       .  A
O4036     Al4046   1.905       .  S
Al4037     O4050   1.911       .  S
Al4037     O4047   1.904       .  S
Al4037     O4042   1.788       .  S
O4038      C4045   1.267       .  A
O4038     Al4046   1.925       .  S
O4039      C4048   1.264       .  A
O4039     Al4046   1.918       .  S
O4040     Al4046   1.882       .  S
O4041      C4048   1.261       .  A
O4042     Al4046   1.781       .  S
O4043      C4044   1.266       .  A
C4044      C4597   1.478       .  S
C4045      C4744   1.487       .  S
C4048      C4609   1.480       .  S
C4049      O4050   1.262       .  A
C4049      C4624   1.497       .  S
C4051      C4052   1.543       .  S
C4051      C4057   1.530       .  S
C4051      C4055   1.535       .  S
C4051      C4804   1.537       .  S
C4052      H4059   1.082       .  S
C4052      C4053   1.368       .  D
C4053      C4054   1.549       .  S
C4053      C4585   1.483       .  S
C4054      C4058   1.539       .  S
C4054      C4056   1.551       .  S
C4054      H4060   1.106       .  S
C4055      H4061   1.086       .  S
C4055      C4056   1.375       .  D
C4056      C4573   1.509       .  S
C4057      H4062   1.087       .  S
C4057      C4058   1.355       .  D
C4058      C4561   1.481       .  S
C4063      C4064   1.542       .  S
C4063      C4069   1.537       .  S
C4063      C4067   1.535       .  S
C4063      C4792   1.540       .  S
C4064      H4071   1.079       .  S
C4064      C4065   1.368       .  D
C4065      C4066   1.542       .  S
C4065      C4540   1.481       .  S
C4066      C4070   1.537       .  S
C4066      C4068   1.543       .  S
C4066      H4072   1.110       .  S
C4067      H4073   1.086       .  S
C4067      C4068   1.370       .  D
C4068      C4552   1.494       .  S
C4069      H4074   1.087       .  S
C4069      C4070   1.358       .  D
C4070      C4525   1.480       .  S
C4075      C4076   1.539       .  S
C4075      C4081   1.533       .  S
C4075      C4079   1.541       .  S
C4075      C4780   1.542       .  S
C4076      H4083   1.086       .  S
C4076      C4077   1.366       .  D
C4077      C4078   1.542       .  S
C4077      C4516   1.483       .  S
C4078      C4082   1.542       .  S
C4078      C4080   1.549       .  S
C4078      H4084   1.107       .  S
C4079      H4085   1.080       .  S
C4079      C4080   1.373       .  D
C4080      C4501   1.503       .  S
C4081      H4086   1.086       .  S
C4081      C4082   1.360       .  D
C4082      C4489   1.489       .  S
O4087      C4102   1.259       .  A
C4088      O4098   1.254       .  A
C4088      O4089   1.257       .  A
C4088      C4528   1.467       .  S
O4089     Al4091   1.895       .  S
O4090      C4092   1.252       .  A
Al4091     O4099   1.893       .  S
C4092      O4105   1.257       .  A
C4092      C4492   1.469       .  S
O4093      C4103   1.254       .  A
O4093     Al4095   1.868       .  S
O4094      C4107   1.260       .  A
Al4095     O4108   1.881       .  S
O4096      C4103   1.264       .  A
O4097      C4106   1.262       .  A
O4099      C4106   1.258       .  A
O4101      C4102   1.262       .  A
C4102      C4816   1.477       .  S
C4103      C4564   1.476       .  S
C4106      C4852   1.483       .  S
C4107      O4108   1.258       .  A
C4107      C4900   1.494       .  S
C4109      C4765   1.492       .  S
C4109      C4110   1.422       .  A
C4109      C4114   1.405       .  A
C4110      C4705   1.502       .  S
C4110      C4111   1.410       .  A
C4111      C4112   1.409       .  A
C4111      H4116   1.084       .  S
C4112      C4588   1.501       .  S
C4112      C4113   1.416       .  A
C4113      C4504   1.486       .  S
C4113      C4114   1.407       .  A
C4114      H4115   1.085       .  S
C4117      C4660   1.476       .  S
C4117      C4118   1.410       .  A
C4117      C4122   1.403       .  A
C4118      C4720   1.489       .  S
C4118      C4119   1.404       .  A
C4119      C4120   1.408       .  A
C4119      H4124   1.084       .  S
C4120      C4549   1.484       .  S
C4120      C4121   1.417       .  A
C4121      C4513   1.491       .  S
C4121      C4122   1.405       .  A
C4122      H4123   1.085       .  S
C4125      C4669   1.485       .  S
C4125      C4126   1.412       .  A
C4125      C4130   1.403       .  A
C4126      C4756   1.484       .  S
C4126      C4127   1.405       .  A
C4127      C4128   1.406       .  A
C4127      H4132   1.084       .  S
C4128      C4537   1.488       .  S
C4128      C4129   1.415       .  A
C4129      C4576   1.486       .  S
C4129      C4130   1.408       .  A
C4130      H4131   1.084       .  S
C4133      C4134   1.537       .  S
C4133      C4139   1.541       .  S
C4133      C4137   1.542       .  S
C4133      C4960   1.544       .  S
C4134      H4141   1.086       .  S
C4134      C4135   1.364       .  D
C4135      C4136   1.541       .  S
C4135      C4465   1.484       .  S
C4136      C4140   1.543       .  S
C4136      C4138   1.542       .  S
C4136      H4142   1.110       .  S
C4137      H4143   1.077       .  S
C4137      C4138   1.371       .  D
C4138      C4477   1.488       .  S
C4139      H4144   1.087       .  S
C4139      C4140   1.362       .  D
C4140      C4453   1.490       .  S
C4145      C4146   1.542       .  S
C4145      C4151   1.534       .  S
C4145      C4149   1.538       .  S
C4145      C4972   1.542       .  S
C4146      H4153   1.080       .  S
C4146      C4147   1.363       .  D
C4147      C4148   1.545       .  S
C4147      C4444   1.477       .  S
C4148      C4152   1.540       .  S
C4148      C4150   1.539       .  S
C4148      H4154   1.101       .  S
C4149      H4155   1.086       .  S
C4149      C4150   1.371       .  D
C4150      C4429   1.497       .  S
C4151      H4156   1.086       .  S
C4151      C4152   1.366       .  D
C4152      C4417   1.496       .  S
C4157      C4158   1.534       .  S
C4157      C4163   1.529       .  S
C4157      C4161   1.549       .  S
C4157      C4984   1.537       .  S
C4158      H4165   1.086       .  S
C4158      C4159   1.364       .  D
C4159      C4160   1.542       .  S
C4159      C4393   1.477       .  S
C4160      C4164   1.536       .  S
C4160      C4162   1.546       .  S
C4160      H4166   1.108       .  S
C4161      H4167   1.081       .  S
C4161      C4162   1.376       .  D
C4162      C4408   1.501       .  S
C4163      H4168   1.088       .  S
C4163      C4164   1.354       .  D
C4164      C4381   1.473       .  S
O4169     Al4177   1.888       .  S
C4170      O4171   1.263       .  A
C4170      C4456   1.472       .  S
O4171     Al4173   1.920       .  S
O4172     Al4173   1.873       .  S
Al4173     O4181   1.888       .  S
C4174      C4384   1.468       .  S
O4175      C4185   1.257       .  A
O4175     Al4177   1.880       .  S
O4176     Al4186   1.896       .  S
Al4177     O4190   1.914       .  S
Al4177     O4187   1.906       .  S
O4178      C4185   1.260       .  A
O4179     Al4186   1.919       .  S
O4180     Al4186   1.884       .  S
O4181      C4188   1.259       .  A
O4182     Al4186   1.786       .  S
O4183      C4184   1.265       .  A
C4184      C5089   1.477       .  S
C4185      C4420   1.481       .  S
C4188      C5041   1.475       .  S
C4189      O4190   1.263       .  A
C4189      C4993   1.480       .  S
C4191      C4192   1.551       .  S
C4191      C4197   1.530       .  S
C4191      C4195   1.532       .  S
C4192      H4199   1.079       .  S
C4192      C4193   1.375       .  D
C4193      C4194   1.544       .  S
C4193      C4357   1.505       .  S
C4194      C4198   1.541       .  S
C4194      C4196   1.550       .  S
C4194      H4200   1.103       .  S
C4195      H4201   1.086       .  S
C4195      C4196   1.362       .  D
C4196      C4369   1.482       .  S
C4197      H4202   1.087       .  S
C4197      C4198   1.363       .  D
C4198      C4348   1.492       .  S
C4203      C4204   1.534       .  S
C4203      C4209   1.530       .  S
C4203      C4207   1.546       .  S
C4204      C4205   1.365       .  D
C4205      C4206   1.552       .  S
C4205      C4321   1.487       .  S
C4206      C4210   1.542       .  S
C4206      C4208   1.549       .  S
C4206      H4212   1.110       .  S
C4207      C4208   1.370       .  D
C4208      C4336   1.499       .  S
C4209      H4214   1.087       .  S
C4209      C4210   1.360       .  D
C4210      C4312   1.486       .  S
C4215      C4216   1.550       .  S
C4215      C4221   1.528       .  S
C4215      C4219   1.534       .  S
C4215      C4612   1.538       .  S
C4216      H4223   1.082       .  S
C4216      C4217   1.378       .  D
C4217      C4218   1.545       .  S
C4217      C4300   1.497       .  S
C4218      C4222   1.539       .  S
C4218      C4220   1.541       .  S
C4218      H4224   1.107       .  S
C4219      H4225   1.086       .  S
C4219      C4220   1.362       .  D
C4220      C4288   1.477       .  S
C4221      H4226   1.088       .  S
C4221      C4222   1.355       .  D
C4222      C4273   1.480       .  S
O4227      C4242   1.264       .  A
O4227     Al4235   1.920       .  S
C4228      O4238   1.256       .  A
C4228      O4229   1.258       .  A
C4228      C4276   1.490       .  S
O4229     Al4231   1.912       .  S
O4230      C4232   1.259       .  A
O4230     Al4231   1.894       .  S
Al4231     O4239   1.903       .  S
Al4231     O4241   1.917       .  S
Al4231     O4240   1.783       .  S
C4232      O4245   1.268       .  A
C4232      C4309   1.491       .  S
O4233      C4243   1.255       .  A
O4233     Al4235   1.882       .  S
O4234      C4247   1.260       .  A
O4234     Al4244   1.891       .  S
Al4235     O4248   1.928       .  S
Al4235     O4245   1.923       .  S
Al4235     O4240   1.784       .  S
O4236      C4243   1.260       .  A
O4236     Al4244   1.905       .  S
O4237      C4246   1.268       .  A
O4237     Al4244   1.915       .  S
O4238     Al4244   1.890       .  S
O4239      C4246   1.264       .  A
O4240     Al4244   1.781       .  S
O4241      C4242   1.264       .  A
C4242      C4732   1.498       .  S
C4243      C4345   1.463       .  S
C4246      C4684   1.495       .  S
C4247      O4248   1.266       .  A
C4247      C4636   1.494       .  S
C4249      C4396   1.486       .  S
C4249      C4250   1.414       .  A
C4249      C4254   1.406       .  A
C4250      C4480   1.483       .  S
C4250      C4251   1.402       .  A
C4251      C4252   1.406       .  A
C4251      H4256   1.084       .  S
C4252      C4285   1.487       .  S
C4252      C4253   1.414       .  A
C4253      C4324   1.483       .  S
C4253      C4254   1.402       .  A
C4254      H4255   1.084       .  S
C4257      C4405   1.481       .  S
C4257      C4258   1.410       .  A
C4257      C4262   1.404       .  A
C4258      C4441   1.483       .  S
C4258      C4259   1.402       .  A
C4259      C4260   1.402       .  A
C4259      H4264   1.085       .  S
C4260      C4297   1.480       .  S
C4260      C4261   1.413       .  A
C4261      C4372   1.488       .  S
C4261      C4262   1.405       .  A
C4262      H4263   1.085       .  S
C4265      C4468   1.484       .  S
C4265      C4266   1.412       .  A
C4265      C4270   1.405       .  A
C4266      C4432   1.485       .  S
C4266      C4267   1.405       .  A
C4267      C4268   1.403       .  A
C4267      H4272   1.085       .  S
C4268      C4333   1.483       .  S
C4268      C4269   1.413       .  A
C4269      C4360   1.485       .  S
C4269      C4270   1.405       .  A
C4270      H4271   1.084       .  S
C4273      C4274   1.402       .  A
C4273      C4278   1.407       .  A
C4274      C4275   1.395       .  A
C4274      H4283   1.084       .  S
C4275      C4276   1.419       .  A
C4275      S4279   1.802       .  S
C4276      C4277   1.411       .  A
C4277      C4278   1.401       .  A
C4277      H4284   1.083       .  S
C4278      S4280   1.798       .  S
S4279      H4282   1.408       .  S
S4280      H4281   1.404       .  S
C4285      C4286   1.403       .  A
C4285      C4290   1.416       .  A
C4286      C4287   1.397       .  A
C4286      H4295   1.073       .  S
C4287      C4288   1.407       .  A
C4287      S4291   1.795       .  S
C4288      C4289   1.401       .  A
C4289      C4290   1.399       .  A
C4289      H4296   1.083       .  S
C4290      S4292   1.805       .  S
S4291      H4294   1.405       .  S
S4292      H4293   1.407       .  S
C4297      C4298   1.398       .  A
C4297      C4302   1.411       .  A
C4298      C4299   1.404       .  A
C4298      H4307   1.083       .  S
C4299      C4300   1.419       .  A
C4299      S4303   1.801       .  S
C4300      C4301   1.406       .  A
C4301      C4302   1.398       .  A
C4301      H4308   1.084       .  S
C4302      S4304   1.805       .  S
S4303      H4306   1.407       .  S
S4304      H4305   1.405       .  S
C4309      C4310   1.403       .  A
C4309      C4314   1.424       .  A
C4310      C4311   1.393       .  A
C4310      H4319   1.084       .  S
C4311      C4312   1.415       .  A
C4311      S4315   1.799       .  S
C4312      C4313   1.400       .  A
C4313      C4314   1.405       .  A
C4313      H4320   1.084       .  S
C4314      S4316   1.799       .  S
S4315      H4318   1.400       .  S
S4316      H4317   1.408       .  S
C4321      C4322   1.405       .  A
C4321      C4326   1.414       .  A
C4322      C4323   1.402       .  A
C4322      H4331   1.085       .  S
C4323      C4324   1.417       .  A
C4323      S4327   1.810       .  S
C4324      C4325   1.402       .  A
C4325      C4326   1.401       .  A
C4325      H4332   1.085       .  S
C4326      S4328   1.799       .  S
S4327      H4330   1.402       .  S
S4328      H4329   1.405       .  S
C4333      C4334   1.400       .  A
C4333      C4338   1.414       .  A
C4334      C4335   1.403       .  A
C4334      H4343   1.083       .  S
C4335      C4336   1.419       .  A
C4335      S4339   1.808       .  S
C4336      C4337   1.402       .  A
C4337      C4338   1.402       .  A
C4337      H4344   1.076       .  S
C4338      S4340   1.808       .  S
S4339      H4342   1.406       .  S
S4340      H4341   1.403       .  S
C4345      C4346   1.400       .  A
C4345      C4350   1.405       .  A
C4346      C4347   1.402       .  A
C4346      H4355   1.083       .  S
C4347      C4348   1.416       .  A
C4347      S4351   1.803       .  S
C4348      C4349   1.411       .  A
C4349      C4350   1.396       .  A
C4349      H4356   1.084       .  S
C4350      S4352   1.805       .  S
S4351      H4354   1.407       .  S
S4352      H4353   1.406       .  S
C4357      C4358   1.411       .  A
C4357      C4362   1.420       .  A
C4358      C4359   1.402       .  A
C4358      H4367   1.083       .  S
C4359      C4360   1.410       .  A
C4359      S4363   1.804       .  S
C4360      C4361   1.397       .  A
C4361      C4362   1.402       .  A
C4361      H4368   1.076       .  S
C4362      S4364   1.801       .  S
S4363      H4366   1.406       .  S
S4364      H4365   1.407       .  S
C4369      C4370   1.401       .  A
C4369      C4374   1.417       .  A
C4370      C4371   1.398       .  A
C4370      H4379   1.082       .  S
C4371      C4372   1.413       .  A
C4371      S4375   1.804       .  S
C4372      C4373   1.404       .  A
C4373      C4374   1.402       .  A
C4373      H4380   1.083       .  S
C4374      S4376   1.807       .  S
S4375      H4378   1.407       .  S
S4376      H4377   1.399       .  S
C4381      C4382   1.402       .  A
C4381      C4386   1.409       .  A
C4382      C4383   1.393       .  A
C4382      H4391   1.083       .  S
C4383      C4384   1.411       .  A
C4384      C4385   1.404       .  A
C4385      C4386   1.398       .  A
S4387      H4390   1.407   1_655  S
S4388      H4389   1.406       .  S
C4394      C4395   1.402   1_455  A
C4395      C4396   1.413       .  A
C4395      S4399   1.808       .  S
C4396      C4397   1.404       .  A
C4397      C4398   1.399       .  A
C4397      H4404   1.082       .  S
S4399      H4402   1.407   1_655  S
S4400      H4401   1.401       .  S
C4405      C4406   1.399       .  A
C4405      C4410   1.406       .  A
C4406      C4407   1.404       .  A
C4406      H4415   1.082       .  S
C4407      S4411   1.802       .  S
C4408      C4409   1.409   1_565  A
C4409      H4416   1.082       .  S
C4410      S4412   1.807       .  S
S4412      H4413   1.407       .  S
C4417      C4418   1.410       .  A
C4417      C4422   1.417       .  A
C4418      C4419   1.398       .  A
C4418      H4427   1.084       .  S
C4419      C4420   1.411       .  A
C4419      S4423   1.800       .  S
C4420      C4421   1.404       .  A
C4421      C4422   1.400       .  A
C4421      H4428   1.082       .  S
C4422      S4424   1.805       .  S
S4423      H4426   1.407       .  S
S4424      H4425   1.407       .  S
C4429      C4430   1.409       .  A
C4430      H4439   1.082       .  S
C4431      C4432   1.406       .  A
C4431      S4435   1.806       .  S
C4432      C4433   1.400       .  A
C4433      C4434   1.406       .  A
C4433      H4440   1.082       .  S
C4434      S4436   1.801   1_655  S
S4435      H4438   1.407       .  S
C4441      C4442   1.404       .  A
C4441      C4446   1.412       .  A
C4442      C4443   1.403       .  A
C4442      H4451   1.084       .  S
C4443      C4444   1.416       .  A
C4443      S4447   1.808       .  S
C4444      C4445   1.398       .  A
C4445      C4446   1.394       .  A
C4445      H4452   1.082       .  S
C4446      S4448   1.804       .  S
S4447      H4450   1.400       .  S
S4448      H4449   1.406       .  S
C4453      C4454   1.408       .  A
C4453      C4458   1.413       .  A
C4454      C4455   1.397       .  A
C4454      H4463   1.084       .  S
C4455      C4456   1.408       .  A
C4456      C4457   1.404       .  A
C4457      C4458   1.407       .  A
C4457      H4464   1.083       .  S
C4458      S4460   1.805       .  S
S4459      H4462   1.407       .  S
S4460      H4461   1.407       .  S
C4466      C4467   1.401       .  A
C4467      C4468   1.415       .  A
C4467      S4471   1.805       .  S
C4468      C4469   1.403       .  A
C4469      C4470   1.400       .  A
C4469      H4476   1.084       .  S
C4470      S4472   1.798       .  S
S4471      H4474   1.405       .  S
C4477      C4478   1.405       .  A
C4477      C4482   1.415       .  A
C4478      C4479   1.404       .  A
C4478      H4487   1.082       .  S
C4479      C4480   1.413       .  A
C4479      S4483   1.805       .  S
C4480      C4481   1.402       .  A
C4481      C4482   1.397       .  A
C4481      H4488   1.084       .  S
C4482      S4484   1.806       .  S
S4483      H4486   1.404       .  S
S4484      H4485   1.405       .  S
C4489      C4490   1.405       .  A
C4489      C4494   1.423       .  A
C4490      C4491   1.399       .  A
C4490      H4499   1.084       .  S
C4491      C4492   1.410       .  A
C4492      C4493   1.396       .  A
C4493      C4494   1.396       .  A
C4493      H4500   1.084       .  S
C4494      S4496   1.803       .  S
S4495      H4498   1.405       .  S
S4496      H4497   1.397       .  S
C4501      C4502   1.407   1_655  A
C4502      H4511   1.084   1_455  S
C4503      C4504   1.413       .  A
C4503      S4507   1.811       .  S
C4504      C4505   1.404       .  A
C4505      C4506   1.411       .  A
C4505      H4512   1.083       .  S
C4506      S4508   1.803       .  S
S4507      H4510   1.402       .  S
C4513      C4514   1.402       .  A
C4514      C4515   1.401       .  A
C4514      H4523   1.083       .  S
C4515      S4519   1.793       .  S
C4516      C4517   1.400       .  A
C4517      C4518   1.400       .  A
C4517      H4524   1.084       .  S
C4518      S4520   1.806       .  S
C4525      C4526   1.406       .  A
C4525      C4530   1.410       .  A
C4526      C4527   1.394       .  A
C4526      H4535   1.084       .  S
C4527      C4528   1.408       .  A
C4527      S4531   1.804       .  S
C4528      C4529   1.405       .  A
C4529      C4530   1.402       .  A
C4529      H4536   1.083       .  S
C4530      S4532   1.806       .  S
S4531      H4534   1.407       .  S
S4532      H4533   1.407       .  S
C4537      C4538   1.404       .  A
C4537      C4542   1.412       .  A
C4538      H4547   1.084       .  S
C4539      C4540   1.410       .  A
C4539      S4543   1.803       .  S
C4541      C4542   1.408       .  A
C4541      H4548   1.083       .  S
C4542      S4544   1.803       .  S
S4543      H4546   1.404       .  S
S4544      H4545   1.407       .  S
C4549      C4550   1.402       .  A
C4549      C4554   1.411       .  A
C4550      C4551   1.398       .  A
C4550      H4559   1.084       .  S
C4551      C4552   1.417       .  A
C4551      S4555   1.805       .  S
C4552      C4553   1.406       .  A
C4553      C4554   1.403       .  A
C4553      H4560   1.081       .  S
C4554      S4556   1.800       .  S
S4555      H4558   1.406       .  S
S4556      H4557   1.405       .  S
C4561      C4562   1.402       .  A
C4561      C4566   1.416       .  A
C4562      C4563   1.401       .  A
C4562      H4571   1.084       .  S
C4563      C4564   1.413       .  A
C4563      S4567   1.797       .  S
C4564      C4565   1.402       .  A
C4565      C4566   1.398       .  A
C4565      H4572   1.084       .  S
C4566      S4568   1.806       .  S
S4568      H4569   1.403       .  S
C4573      C4574   1.411       .  A
C4573      C4578   1.424       .  A
C4574      H4583   1.082       .  S
C4575      C4576   1.411       .  A
C4575      S4579   1.809       .  S
C4576      C4577   1.401       .  A
C4577      H4584   1.084       .  S
C4578      S4580   1.797       .  S
S4579      H4582   1.404       .  S
S4580      H4581   1.390       .  S
C4585      C4586   1.402       .  A
C4585      C4590   1.416       .  A
C4586      C4587   1.404       .  A
C4586      H4595   1.082       .  S
C4587      C4588   1.418       .  A
C4587      S4591   1.797       .  S
C4588      C4589   1.407       .  A
C4589      C4590   1.399       .  A
C4589      H4596   1.084       .  S
C4590      S4592   1.811       .  S
S4591      H4594   1.406       .  S
S4592      H4593   1.399       .  S
C4597      C4598   1.397       .  A
C4597      C4602   1.409       .  A
C4598      C4599   1.402       .  A
C4598      H4607   1.082       .  S
C4599      C4600   1.428       .  A
C4600      C4601   1.414       .  A
C4601      C4602   1.402       .  A
C4601      H4608   1.074       .  S
C4602      S4604   1.804       .  S
S4603      H4606   1.406       .  S
S4604      H4605   1.407       .  S
C4609      C4610   1.398       .  A
C4609      C4614   1.409       .  A
C4610      C4611   1.401       .  A
C4610      H4619   1.083       .  S
C4611      C4612   1.428       .  A
C4611      S4615   1.814       .  S
C4612      C4613   1.411       .  A
C4613      C4614   1.403       .  A
C4613      H4620   1.077       .  S
C4614      S4616   1.800       .  S
S4615      H4618   1.406       .  S
S4616      H4617   1.407       .  S
C4621      C4622   1.412       .  A
C4621      C4626   1.424       .  A
C4622      C4623   1.405       .  A
C4622      H4631   1.076       .  S
C4623      C4624   1.416       .  A
C4623      S4627   1.808       .  S
C4624      C4625   1.405       .  A
C4625      C4626   1.402       .  A
C4625      H4632   1.082       .  S
C4626      S4628   1.812       .  S
S4627      H4630   1.407       .  S
C4633      C4634   1.413       .  A
C4633      C4638   1.426       .  A
C4634      C4635   1.400       .  A
C4634      H4643   1.076       .  S
C4635      C4636   1.412       .  A
C4635      S4639   1.797       .  S
C4636      C4637   1.403       .  A
C4637      C4638   1.405       .  A
C4637      H4644   1.082       .  S
C4638      S4640   1.809       .  S
S4639      H4642   1.399       .  S
S4640      H4641   1.407       .  S
C4645      C4646   1.408       .  A
C4645      C4650   1.413       .  A
C4646      C4647   1.400       .  A
C4646      H4655   1.082       .  S
C4647      C4648   1.411       .  A
C4647      S4651   1.810       .  S
C4648      C4649   1.404       .  A
C4649      C4650   1.400       .  A
C4649      H4656   1.079       .  S
C4650      S4652   1.807       .  S
S4651      H4654   1.407       .  S
S4652      H4653   1.407       .  S
C4657      C4658   1.401       .  A
C4657      C4662   1.416       .  A
C4658      C4659   1.401       .  A
C4658      H4667   1.082       .  S
C4659      C4660   1.415       .  A
C4659      S4663   1.809       .  S
C4660      C4661   1.399       .  A
C4661      C4662   1.397       .  A
C4661      H4668   1.084       .  S
C4662      S4664   1.805       .  S
S4663      H4666   1.402       .  S
S4664      H4665   1.401       .  S
C4669      C4670   1.403       .  A
C4669      C4674   1.409       .  A
C4670      C4671   1.402       .  A
C4670      H4679   1.084       .  S
C4671      C4672   1.415       .  A
C4671      S4675   1.803       .  S
C4672      C4673   1.404       .  A
C4673      C4674   1.405       .  A
C4673      H4680   1.080       .  S
C4674      S4676   1.804       .  S
S4675      H4678   1.407       .  S
S4676      H4677   1.407       .  S
C4681      C4682   1.414       .  A
C4681      C4686   1.423       .  A
C4682      C4683   1.407       .  A
C4682      H4691   1.072       .  S
C4683      C4684   1.415       .  A
C4683      S4687   1.810       .  S
C4684      C4685   1.405       .  A
C4685      C4686   1.401       .  A
C4685      H4692   1.081       .  S
C4686      S4688   1.812       .  S
S4687      H4690   1.407       .  S
S4688      H4689   1.406       .  S
C4693      C4694   1.399       .  A
C4693      C4698   1.415       .  A
C4694      C4695   1.399       .  A
C4694      H4703   1.085       .  S
C4695      C4696   1.420       .  A
C4695      S4699   1.799       .  S
C4696      C4697   1.406       .  A
C4697      C4698   1.396       .  A
C4697      H4704   1.084       .  S
C4698      S4700   1.808       .  S
S4699      H4702   1.388       .  S
S4700      H4701   1.398       .  S
C4705      C4706   1.405       .  A
C4705      C4710   1.421       .  A
C4706      C4707   1.402       .  A
C4706      H4715   1.080       .  S
C4707      C4708   1.414       .  A
C4707      S4711   1.794       .  S
C4708      C4709   1.402       .  A
C4709      C4710   1.401       .  A
C4709      H4716   1.084       .  S
C4710      S4712   1.805       .  S
S4711      H4714   1.401       .  S
S4712      H4713   1.406       .  S
C4717      C4718   1.409       .  A
C4717      C4722   1.419       .  A
C4718      C4719   1.400       .  A
C4718      H4727   1.084       .  S
C4719      C4720   1.410       .  A
C4719      S4723   1.805       .  S
C4720      C4721   1.402       .  A
C4721      C4722   1.408       .  A
C4721      H4728   1.080       .  S
C4722      S4724   1.803       .  S
S4723      H4726   1.406       .  S
S4724      H4725   1.406       .  S
C4729      C4730   1.410       .  A
C4729      C4734   1.425       .  A
C4730      C4731   1.408       .  A
C4730      H4739   1.075       .  S
C4731      C4732   1.412       .  A
C4731      S4735   1.800       .  S
C4732      C4733   1.404       .  A
C4733      C4734   1.403       .  A
C4733      H4740   1.082       .  S
C4734      S4736   1.813       .  S
S4735      H4738   1.406       .  S
S4736      H4737   1.406       .  S
C4741      C4742   1.401       .  A
C4741      C4746   1.415       .  A
C4742      C4743   1.404       .  A
C4742      H4751   1.083       .  S
C4743      C4744   1.419       .  A
C4743      S4747   1.807       .  S
C4744      C4745   1.403       .  A
C4745      C4746   1.400       .  A
C4745      H4752   1.083       .  S
C4746      S4748   1.809       .  S
S4747      H4750   1.407       .  S
S4748      H4749   1.407       .  S
C4753      C4754   1.400       .  A
C4753      C4758   1.414       .  A
C4754      C4755   1.399       .  A
C4754      H4763   1.083       .  S
C4755      C4756   1.416       .  A
C4755      S4759   1.807       .  S
C4756      C4757   1.404       .  A
C4757      C4758   1.402       .  A
C4757      H4764   1.084       .  S
C4758      S4760   1.805       .  S
S4759      H4762   1.402       .  S
S4760      H4761   1.402       .  S
C4765      C4766   1.404       .  A
C4765      C4770   1.412       .  A
C4766      C4767   1.400       .  A
C4766      H4775   1.085       .  S
C4767      C4768   1.416       .  A
C4767      S4771   1.803       .  S
C4768      C4769   1.410       .  A
C4769      C4770   1.408       .  A
C4769      H4776   1.082       .  S
C4770      S4772   1.803       .  S
S4772      H4773   1.405       .  S
C4777      C4778   1.405       .  A
C4777      C4782   1.412       .  A
C4778      C4779   1.399       .  A
C4778      H4787   1.081       .  S
C4779      C4780   1.423       .  A
C4779      S4783   1.811       .  S
C4780      C4781   1.416       .  A
C4781      C4782   1.403       .  A
C4781      H4788   1.073       .  S
C4782      S4784   1.802       .  S
S4783      H4786   1.406       .  S
S4784      H4785   1.408       .  S
C4789      C4790   1.402       .  A
C4789      C4794   1.409       .  A
C4790      C4791   1.408       .  A
C4790      H4799   1.084       .  S
C4791      C4792   1.422       .  A
C4791      S4795   1.799       .  S
C4792      C4793   1.410       .  A
C4793      C4794   1.391       .  A
C4793      H4800   1.085       .  S
C4794      S4796   1.801       .  S
S4795      H4798   1.408       .  S
S4796      H4797   1.406       .  S
C4801      C4802   1.397       .  A
C4801      C4806   1.408       .  A
C4802      C4803   1.398       .  A
C4802      H4811   1.083       .  S
C4803      C4804   1.427       .  A
C4803      S4807   1.813       .  S
C4804      C4805   1.414       .  A
C4805      C4806   1.402       .  A
C4805      H4812   1.077       .  S
C4806      S4808   1.804       .  S
S4807      H4810   1.407       .  S
S4808      H4809   1.407       .  S
C4813      C4814   1.413       .  A
C4813      C4818   1.427       .  A
C4814      C4815   1.402       .  A
C4814      H4823   1.076       .  S
C4815      C4816   1.409       .  A
C4816      C4817   1.398       .  A
C4817      C4818   1.399       .  A
C4817      H4824   1.083       .  S
C4818      S4820   1.814       .  S
S4819      H4822   1.407       .  S
S4820      H4821   1.406       .  S
C4825      C4826   1.405       .  A
C4825      C4830   1.410       .  A
C4826      C4827   1.397       .  A
C4826      H4835   1.085       .  S
C4827      C4828   1.415       .  A
C4827      S4831   1.800       .  S
C4828      C4829   1.410       .  A
C4829      C4830   1.402       .  A
C4829      H4836   1.083       .  S
C4830      S4832   1.805       .  S
S4831      H4834   1.408       .  S
S4832      H4833   1.407       .  S
C4837      C4838   1.402       .  A
C4837      C4842   1.413       .  A
C4838      C4839   1.401       .  A
C4838      H4847   1.085       .  S
C4839      C4840   1.415       .  A
C4840      C4841   1.404       .  A
C4841      C4842   1.400       .  A
C4841      H4848   1.084   1_554  S
C4842      S4844   1.803       .  S
S4843      H4846   1.405       .  S
S4844      H4845   1.403       .  S
C4849      C4850   1.412       .  A
C4849      C4854   1.424       .  A
C4850      C4851   1.396       .  A
C4850      H4859   1.084       .  S
C4851      C4852   1.412       .  A
C4851      S4855   1.802       .  S
C4852      C4853   1.403       .  A
C4853      C4854   1.406       .  A
C4853      H4860   1.084       .  S
C4854      S4856   1.797       .  S
S4855      H4858   1.406       .  S
S4856      H4857   1.408       .  S
C4861      C4862   1.405       .  A
C4861      C4866   1.421       .  A
C4862      C4863   1.398       .  A
C4862      H4871   1.083       .  S
C4863      C4864   1.414       .  A
C4863      S4867   1.805       .  S
C4864      C4865   1.399       .  A
C4865      C4866   1.400       .  A
C4865      H4872   1.084       .  S
C4866      S4868   1.798       .  S
S4867      H4870   1.407       .  S
S4868      H4869   1.407       .  S
C4873      C4874   1.410       .  A
C4873      C4878   1.424       .  A
C4874      C4875   1.401       .  A
C4874      H4883   1.082       .  S
C4875      C4876   1.407       .  A
C4875      S4879   1.805       .  S
C4876      C4877   1.399       .  A
C4877      C4878   1.407       .  A
C4877      H4884   1.083       .  S
C4878      S4880   1.800       .  S
S4879      H4882   1.406       .  S
S4880      H4881   1.407       .  S
C4885      C4886   1.402       .  A
C4885      C4890   1.412       .  A
C4886      C4887   1.401       .  A
C4886      H4895   1.080       .  S
C4887      C4888   1.413       .  A
C4887      S4891   1.805   1_554  S
C4888      C4889   1.403       .  A
C4889      C4890   1.400       .  A
C4889      H4896   1.081       .  S
C4890      S4892   1.804       .  S
S4891      H4894   1.404       .  S
S4892      H4893   1.403       .  S
C4897      C4898   1.415       .  A
C4897      C4902   1.422       .  A
C4898      C4899   1.409       .  A
C4898      H4907   1.073       .  S
C4899      C4900   1.413       .  A
C4899      S4903   1.809       .  S
C4900      C4901   1.404       .  A
C4901      C4902   1.395       .  A
C4901      H4908   1.081       .  S
C4902      S4904   1.814       .  S
S4904      H4905   1.407       .  S
C4909      C4910   1.398       .  A
C4909      C4914   1.410       .  A
C4910      C4911   1.396       .  A
C4910      H4919   1.083       .  S
C4911      C4912   1.421       .  A
C4911      S4915   1.802       .  S
C4912      C4913   1.406       .  A
C4913      C4914   1.395       .  A
C4913      H4920   1.084       .  S
C4914      S4916   1.804       .  S
S4915      H4918   1.408       .  S
S4916      H4917   1.406       .  S
C4921      C4922   1.403       .  A
C4921      C4926   1.412       .  A
C4922      C4923   1.402       .  A
C4922      H4931   1.084       .  S
C4923      C4924   1.416       .  A
C4923      S4927   1.807       .  S
C4924      C4925   1.398       .  A
C4925      C4926   1.394       .  A
C4925      H4932   1.083       .  S
C4926      S4928   1.804   1_554  S
S4927      H4930   1.398       .  S
S4928      H4929   1.406       .  S
C4933      C4934   1.400       .  A
C4933      C4938   1.415       .  A
C4934      C4935   1.397       .  A
C4934      H4943   1.077       .  S
C4935      C4936   1.413       .  A
C4935      S4939   1.809   1_554  S
C4936      C4937   1.402       .  A
C4937      C4938   1.399       .  A
C4937      H4944   1.084       .  S
C4938      S4940   1.805       .  S
S4939      H4942   1.402       .  S
S4940      H4941   1.406       .  S
C4945      C4946   1.410       .  A
C4945      C4950   1.420       .  A
C4946      C4947   1.398       .  A
C4946      H4955   1.083       .  S
C4947      C4948   1.408       .  A
C4948      C4949   1.398       .  A
C4949      C4950   1.403       .  A
C4949      H4956   1.077       .  S
C4950      S4952   1.803       .  S
S4951      H4954   1.406       .  S
S4952      H4953   1.407       .  S
C4957      C4958   1.405       .  A
C4957      C4962   1.420       .  A
C4958      C4959   1.409       .  A
C4958      H4967   1.084       .  S
C4959      C4960   1.424       .  A
C4959      S4963   1.799       .  S
C4960      C4961   1.406       .  A
C4961      C4962   1.391       .  A
C4961      H4968   1.085       .  S
C4962      S4964   1.805       .  S
S4963      H4966   1.408       .  S
S4964      H4965   1.408       .  S
C4969      C4970   1.402       .  A
C4969      C4974   1.408       .  A
C4970      C4971   1.402       .  A
C4970      H4979   1.082       .  S
C4971      C4972   1.425       .  A
C4971      S4975   1.814       .  S
C4972      C4973   1.415       .  A
C4973      C4974   1.402       .  A
C4973      H4980   1.073       .  S
C4974      S4976   1.804       .  S
S4975      H4978   1.406       .  S
S4976      H4977   1.407       .  S
C4981      C4982   1.403       .  A
C4981      C4986   1.414       .  A
C4982      C4983   1.398       .  A
C4982      H4991   1.082       .  S
C4983      C4984   1.425       .  A
C4983      S4987   1.814       .  S
C4984      C4985   1.411       .  A
C4985      C4986   1.402       .  A
C4985      H4992   1.076       .  S
C4986      S4988   1.803       .  S
S4987      H4990   1.406       .  S
S4988      H4989   1.408       .  S
C4993      C4994   1.396       .  A
C4993      C4998   1.410       .  A
C4994      C4995   1.400       .  A
C4994      H5003   1.083       .  S
C4995      C4996   1.430       .  A
C4995      S4999   1.813       .  S
C4996      C4997   1.413       .  A
C4997      C4998   1.406       .  A
C4997      H5004   1.076       .  S
C4998      S5000   1.809       .  S
S4999      H5002   1.406       .  S
S5000      H5001   1.406       .  S
C5005      C5006   1.403       .  A
C5005      C5010   1.414       .  A
C5006      C5007   1.402       .  A
C5006      H5015   1.084       .  S
C5007      C5008   1.419       .  A
C5007      S5011   1.802       .  S
C5008      C5009   1.404       .  A
C5009      C5010   1.396       .  A
C5009      H5016   1.082       .  S
C5010      S5012   1.810       .  S
S5011      H5014   1.405       .  S
S5012      H5013   1.406       .  S
C5017      C5018   1.408       .  A
C5017      C5022   1.422       .  A
C5018      C5019   1.398       .  A
C5018      H5027   1.084       .  S
C5019      C5020   1.411       .  A
C5019      S5023   1.804       .  S
C5020      C5021   1.400       .  A
C5021      C5022   1.406       .  A
C5021      H5028   1.083       .  S
C5022      S5024   1.802       .  S
S5023      H5026   1.406       .  S
S5024      H5025   1.407       .  S
C5029      C5030   1.404       .  A
C5029      C5034   1.419       .  A
C5030      C5031   1.399       .  A
C5031      C5032   1.408       .  A
C5031      S5035   1.797       .  S
C5032      C5033   1.401       .  A
C5033      C5034   1.401       .  A
C5033      H5040   1.084       .  S
C5034      S5036   1.806   1_556  S
S5035      H5038   1.404       .  S
S5036      H5037   1.401       .  S
C5041      C5042   1.397       .  A
C5041      C5046   1.407       .  A
C5042      C5043   1.400       .  A
C5042      H5051   1.083       .  S
C5043      C5044   1.428       .  A
C5043      S5047   1.814       .  S
C5044      C5045   1.413       .  A
C5045      C5046   1.401       .  A
C5045      H5052   1.076       .  S
S5047      H5050   1.406       .  S
S5048      H5049   1.407       .  S
C5053      C5054   1.408       .  A
C5053      C5058   1.414       .  A
C5054      C5055   1.402       .  A
C5054      H5063   1.083       .  S
C5055      C5056   1.411       .  A
C5055      S5059   1.807       .  S
C5056      C5057   1.406       .  A
C5057      C5058   1.399       .  A
C5057      H5064   1.083       .  S
C5058      S5060   1.810       .  S
S5059      H5062   1.407       .  S
S5060      H5061   1.407       .  S
C5065      C5066   1.398       .  A
C5065      C5070   1.412       .  A
C5066      C5067   1.395       .  A
C5066      H5075   1.082       .  S
C5067      C5068   1.414       .  A
C5067      S5071   1.803       .  S
C5068      C5069   1.404       .  A
C5069      C5070   1.402       .  A
C5069      H5076   1.083       .  S
C5070      S5072   1.799       .  S
S5071      H5074   1.407   1_556  S
S5072      H5073   1.403       .  S
C5077      C5078   1.409       .  A
C5077      C5082   1.417       .  A
C5078      C5079   1.400       .  A
C5078      H5087   1.084       .  S
C5079      C5080   1.411       .  A
C5080      C5081   1.400       .  A
C5081      C5082   1.402       .  A
C5081      H5088   1.081       .  S
C5082      S5084   1.800       .  S
S5083      H5086   1.399       .  S
S5084      H5085   1.407       .  S
C5089      C5090   1.401       .  A
C5089      C5094   1.409       .  A
C5090      C5091   1.405       .  A
C5090      H5099   1.084       .  S
C5091      C5092   1.425       .  A
C5091      S5095   1.798       .  S
C5092      C5093   1.412       .  A
C5093      C5094   1.394       .  A
C5093      H5100   1.084       .  S
C5094      S5096   1.801   1_565  S
S5095      H5098   1.408       .  S
S5096      H5097   1.406       .  S
C5101      C5102   1.402       .  A
C5101      C5106   1.414       .  A
C5102      C5103   1.400       .  A
C5102      H5111   1.083       .  S
C5103      C5104   1.418       .  A
C5103      S5107   1.802       .  S
C5104      C5105   1.405       .  A
C5105      C5106   1.395       .  A
C5105      H5112   1.083       .  S
C5106      S5108   1.806       .  S
S5107      H5110   1.406       .  S
S5108      H5109   1.407       .  S
C5113      C5114   1.404       .  A
C5113      C5118   1.413       .  A
C5114      C5115   1.399       .  A
C5115      C5116   1.411       .  A
C5115      S5119   1.805       .  S
C5116      C5117   1.400       .  A
C5117      C5118   1.397       .  A
C5117      H5124   1.082       .  S
C5118      S5120   1.804   1_556  S
S5119      H5122   1.400       .  S
S5120      H5121   1.401       .  S
C5125      C5126   1.409       .  A
C5125      C5130   1.421       .  A
C5126      C5127   1.398       .  A
C5126      H5135   1.084       .  S
C5127      C5128   1.412       .  A
C5128      C5129   1.398       .  A
C5129      C5130   1.401       .  A
C5129      H5136   1.081       .  S
C5130      S5132   1.801       .  S
S5131      H5134   1.399       .  S
S5132      H5133   1.407       .  S
