geometry optimzed in LAMMPS
_audit_creation_date              2020-11-30 
_audit_creation_method            'lammps2cif' 
_symmetry_space_group_name_H-M    'P1' 
_symmetry_Int_Tables_number       1 
_symmetry_cell_setting            triclinic 
loop_ 
_symmetry_equiv_pos_as_xyz 
  x,y,z 
_cell_length_a                    33.09943023260094 
_cell_length_b                    33.008826225901906 
_cell_length_c                    33.13319325341668 
_cell_angle_alpha                 90.02088865359478 
_cell_angle_beta                  90.07563634889087 
_cell_angle_gamma                 90.01840291864637 
loop_ 
_atom_site_label 
_atom_site_type_symbol 
_atom_site_fract_x 
_atom_site_fract_y 
_atom_site_fract_z 
_atom_site_charge 
O1          O  0.99339182  0.55264575  0.53157189    -0.72610
O2          O  0.99685100  0.44720493  0.47052247    -0.73590
O3          O  0.99537654  0.46928747  0.55325450    -0.62210
O4          O  0.99469317  0.53032990  0.44839381    -0.70620
O5          O  0.06183095  0.53171542  0.44897850    -0.70170
O6          O  0.06229346  0.47281238  0.55483407    -0.61420
O7          O  0.06371538  0.44888240  0.47245714    -0.73930
O8          O  0.06048799  0.55518722  0.53108316    -0.72710
Cu9        Cu  0.99271825  0.49982732  0.50088266     1.04560
Cu10       Cu  0.06440896  0.50217209  0.50181914     1.04330
C11         C  0.02643811  0.57038431  0.54089666     0.93590
C12         C  0.03096006  0.43115514  0.46207593     0.92730
C13         C  0.02895182  0.46161429  0.57072823     0.84880
C14         C  0.02818992  0.54062100  0.43230978     0.91150
O15         O  0.35250914  0.82273501  0.55317781    -0.72610
O16         O  0.41386683  0.81982236  0.44903706    -0.73590
O17         O  0.43543097  0.81933067  0.53229697    -0.62210
O18         O  0.33135312  0.82349843  0.47007196    -0.70620
O19         O  0.33320618  0.89079321  0.47142493    -0.70170
O20         O  0.43949951  0.88649299  0.52988424    -0.61420
O21         O  0.41549865  0.88686785  0.44752039    -0.73930
O22         O  0.35719050  0.88988874  0.55428847    -0.72710
Cu23       Cu  0.38322336  0.81900517  0.50120101     1.04560
Cu24       Cu  0.38644700  0.89088137  0.50082360     1.04330
C25         C  0.34537405  0.85667535  0.57020824     0.93590
C26         C  0.42391134  0.85270106  0.43134485     0.92730
C27         C  0.45384848  0.85229359  0.54070249     0.84880
C28         C  0.31610322  0.85779045  0.46079506     0.91150
O29         O  0.77128478  0.44688177  0.52931188    -0.72610
O30         O  0.77414430  0.55252747  0.46915694    -0.73590
O31         O  0.77337798  0.52983640  0.55205350    -0.62210
O32         O  0.77224335  0.47000097  0.44683839    -0.70620
O33         O  0.70541209  0.47326014  0.44573412    -0.70170
O34         O  0.70621618  0.53020150  0.55261169    -0.61420
O35         O  0.70710857  0.55545063  0.47101491    -0.73930
O36         O  0.70442585  0.44795784  0.52774758    -0.72710
Cu37       Cu  0.77509202  0.49974685  0.49941477     1.04560
Cu38       Cu  0.70343667  0.50172561  0.49928303     1.04330
C39         C  0.73738770  0.43049683  0.53793058     0.93590
C40         C  0.74106953  0.57053796  0.46061672     0.92730
C41         C  0.74000461  0.53939084  0.56880111     0.84880
C42         C  0.73867823  0.46248054  0.42934128     0.91150
O43         O  0.35862938  0.55422338  0.17893041    -0.72610
O44         O  0.41302067  0.44621210  0.18099094    -0.73590
O45         O  0.43995475  0.52755626  0.17979887    -0.62210
O46         O  0.33171832  0.47274802  0.17981482    -0.70620
O47         O  0.33290249  0.47008270  0.11304099    -0.70170
O48         O  0.43923569  0.52859264  0.11284150    -0.61420
O49         O  0.41518064  0.44553955  0.11422118    -0.73930
O50         O  0.35702024  0.55259486  0.11208624    -0.72710
Cu51       Cu  0.38582374  0.50021608  0.18217586     1.04560
Cu52       Cu  0.38613115  0.49913816  0.11069293     1.04330
C53         C  0.34878216  0.57042765  0.14531924     0.93590
C54         C  0.42299596  0.42870460  0.14812173     0.92730
C55         C  0.45642851  0.53723593  0.14630123     0.84880
C56         C  0.31527279  0.46234961  0.14643455     0.91150
C57         C  0.16786263  0.36877540  0.15417155     0.03470
C58         C  0.16788719  0.33831837  0.18365522    -0.12680
C59         C  0.13473723  0.31245986  0.18791534     0.00970
C60         C  0.10141532  0.31674765  0.16228339    -0.11210
C61         C  0.10126703  0.34623779  0.13174081     0.03460
C62         C  0.13476481  0.37222896  0.12772392    -0.10630
H63         H  0.19373751  0.33477259  0.20346410     0.09050
H64         H  0.07566076  0.29678516  0.16594039     0.06580
H65         H  0.13518022  0.39496784  0.10416891     0.06430
C66         C  0.01648244  0.34523723  0.78336560     0.03470
C67         C  0.01081252  0.36981087  0.74915855    -0.12680
C68         C  0.03537766  0.36461382  0.71504429     0.00970
C69         C  0.06505333  0.33439682  0.71481512    -0.11210
C70         C  0.07088651  0.30982115  0.74872550     0.03460
C71         C  0.04679576  0.31552733  0.78293658    -0.10630
H72         H  0.98821125  0.39354244  0.74941389     0.09050
H73         H  0.08406744  0.33050148  0.68847326     0.06580
H74         H  0.05122613  0.29627571  0.80907811     0.06430
C75         C  0.73045549  0.36947878  0.28197639     0.03470
C76         C  0.70143983  0.33853201  0.28227615    -0.12680
C77         C  0.69738846  0.31246264  0.24928315     0.00970
C78         C  0.72297121  0.31683087  0.21602225    -0.11210
C79         C  0.75310060  0.34671938  0.21581115     0.03460
C80         C  0.75657336  0.37332376  0.24877106    -0.10630
H81         H  0.68178178  0.33483650  0.30816042     0.09050
H82         H  0.71952202  0.29677693  0.19032950     0.06580
H83         H  0.77946055  0.39680820  0.24860572     0.06430
O84         O  0.83241894  0.39022600  0.96885638    -0.72610
O85         O  0.93798471  0.38630898  0.02877684    -0.73590
O86         O  0.91509955  0.38807450  0.94645091    -0.62210
O87         O  0.85528250  0.38847210  0.05175590    -0.70620
O88         O  0.85501931  0.32134739  0.05170244    -0.70170
O89         O  0.91127526  0.32085950  0.94467848    -0.61420
O90         O  0.93667865  0.31928962  0.02633856    -0.73930
O91         O  0.82928547  0.32298428  0.97009382    -0.72710
Cu92       Cu  0.88519590  0.39062912  0.99900283     1.04560
Cu93       Cu  0.88294631  0.31878008  0.99816639     1.04330
C94         C  0.81427269  0.35719783  0.96017550     0.93590
C95         C  0.95433802  0.35213080  0.03669755     0.92730
C96         C  0.92264481  0.35436567  0.92915825     0.84880
C97         C  0.84600133  0.35493474  0.06863902     0.91150
C98         C  0.60126458  0.63356799  0.15315400     0.03470
C99         C  0.63531824  0.62877020  0.12839562    -0.12680
C100        C  0.66978526  0.65276749  0.13484224     0.00970
C101        C  0.66963665  0.68198240  0.16558007    -0.11210
C102        C  0.63530018  0.68766224  0.18958188     0.03460
C103        C  0.60121821  0.66329854  0.18333417    -0.10630
H104        H  0.63538231  0.60581860  0.10499760     0.09050
H105        H  0.69602263  0.70088105  0.17029165     0.06580
H106        H  0.57482890  0.66707002  0.20232383     0.06430
C107        C  0.73332564  0.63232413  0.71561202     0.03470
C108        C  0.70433109  0.66335614  0.71627942    -0.12680
C109        C  0.69948454  0.68769623  0.75047053     0.00970
C110        C  0.72402884  0.68129853  0.78424290    -0.11210
C111        C  0.75343866  0.65077378  0.78396765     0.03460
C112        C  0.75787836  0.62605169  0.74975125    -0.10630
H113        H  0.68490637  0.66816435  0.69034635     0.09050
H114        H  0.72055595  0.70039481  0.81064944     0.06580
H115        H  0.78115992  0.60300406  0.74931179     0.06430
C116        C  0.01820974  0.65441364  0.21756364     0.03470
C117        C  0.05073470  0.68168953  0.21662177    -0.12680
C118        C  0.07586107  0.68644440  0.25022067     0.00970
C119        C  0.06950061  0.66262408  0.28450315    -0.11210
C120        C  0.03796219  0.63416500  0.28573816     0.03460
C121        C  0.01216859  0.63034634  0.25210113    -0.10630
H122        H  0.05611116  0.69988391  0.18994851     0.09050
H123        H  0.08957672  0.66603329  0.31015747     0.06580
H124        H  0.98679808  0.60965462  0.25316252     0.06430
O125        O  0.85449904  0.60965937  0.94849947    -0.72610
O126        O  0.91434163  0.61096303  0.05443999    -0.73590
O127        O  0.83189723  0.61026150  0.03165221    -0.62210
O128        O  0.93718204  0.60990949  0.97160736    -0.70620
O129        O  0.93731607  0.67724032  0.97158510    -0.70170
O130        O  0.83080047  0.67753601  0.02942311    -0.61420
O131        O  0.91296886  0.67802793  0.05391486    -0.73930
O132        O  0.85572777  0.67680704  0.94766368    -0.72710
Cu133      Cu  0.88446979  0.60781825  0.00158752     1.04560
Cu134      Cu  0.88419789  0.67971951  0.00069040     1.04330
C135        C  0.84626525  0.64322197  0.93102796     0.93590
C136        C  0.92292461  0.64482776  0.07110887     0.92730
C137        C  0.81487337  0.64393321  0.03997567     0.84880
C138        C  0.95353751  0.64353529  0.96186262     0.91150
C139        C  0.66762087  0.34967549  0.86739452     0.03470
C140        C  0.66824612  0.31988907  0.83724078    -0.12680
C141        C  0.63388131  0.31227486  0.81378016     0.00970
C142        C  0.59892558  0.33535447  0.81993954    -0.11210
C143        C  0.59818483  0.36624021  0.84909587     0.03460
C144        C  0.63255701  0.37292724  0.87324220    -0.10630
H145        H  0.69524979  0.30185890  0.83274765     0.09050
H146        H  0.57260512  0.33001721  0.80116374     0.06580
H147        H  0.63209976  0.39611576  0.89638187     0.06430
C148        C  0.16622209  0.63200215  0.84625503     0.03470
C149        C  0.13135921  0.62655869  0.86978716    -0.12680
C150        C  0.09752768  0.65186385  0.86416191     0.00970
C151        C  0.09949457  0.68278456  0.83506328    -0.11210
C152        C  0.13405345  0.68801335  0.81133459     0.03460
C153        C  0.16743356  0.66273913  0.81720970    -0.10630
H154        H  0.13049497  0.60248927  0.89199396     0.09050
H155        H  0.07443114  0.70352549  0.83128267     0.06580
H156        H  0.19425126  0.66667116  0.79885648     0.06430
O157        O  0.43662628  0.47160650  0.82102605    -0.72610
O158        O  0.32974073  0.52928495  0.82035624    -0.73590
O159        O  0.41230413  0.55396562  0.82066284    -0.62210
O160        O  0.35463848  0.44736865  0.82048957    -0.70620
O161        O  0.35249940  0.44800671  0.88729284    -0.70170
O162        O  0.41342490  0.55343190  0.88774651    -0.61420
O163        O  0.33049257  0.53138532  0.88731972    -0.73930
O164        O  0.43524214  0.47016451  0.88807948    -0.72710
Cu165      Cu  0.38331875  0.50064554  0.81829554     1.04560
Cu166      Cu  0.38288035  0.50081395  0.88996532     1.04330
C167        C  0.45230165  0.46123585  0.85471319     0.93590
C168        C  0.31328595  0.53944622  0.85373985     0.92730
C169        C  0.42252867  0.57008000  0.85418279     0.84880
C170        C  0.34425012  0.43075378  0.85372214     0.91150
C171        C  0.53957014  0.21401851  0.13435913     0.03470
C172        C  0.51303415  0.24716607  0.13043848    -0.12680
C173        C  0.51789050  0.28175943  0.15478156     0.00970
C174        C  0.54913997  0.28284330  0.18339976    -0.11210
C175        C  0.57502706  0.24977595  0.18815458     0.03460
C176        C  0.57042740  0.21575536  0.16348202    -0.10630
H177        H  0.48798454  0.24569014  0.10946344     0.09050
H178        H  0.55298147  0.30927309  0.20246918     0.06580
H179        H  0.59134535  0.19072135  0.16683651     0.06430
C180        C  0.53907844  0.78335025  0.86474205     0.03470
C181        C  0.51397702  0.74902238  0.86868287    -0.12680
C182        C  0.52060160  0.71426583  0.84484916     0.00970
C183        C  0.55141924  0.71487141  0.81578852    -0.11210
C184        C  0.57628948  0.74875875  0.81144034     0.03460
C185        C  0.57036936  0.78253391  0.83610687    -0.10630
H186        H  0.48932499  0.74921748  0.89008274     0.09050
H187        H  0.55562478  0.68926227  0.79577922     0.06580
H188        H  0.59064966  0.80813305  0.83308987     0.06430
C189        C  0.54027760  0.86719027  0.21728816     0.03470
C190        C  0.56957041  0.83647312  0.21750157    -0.12680
C191        C  0.57397875  0.81104326  0.25095785     0.00970
C192        C  0.54860425  0.81598772  0.28431299    -0.11210
C193        C  0.51827428  0.84573251  0.28427671     0.03460
C194        C  0.51418241  0.87135317  0.25053704    -0.10630
H195        H  0.58913815  0.83240928  0.19160697     0.09050
H196        H  0.55226738  0.79631411  0.31025850     0.06580
H197        H  0.49081936  0.89431841  0.25005338     0.06430
O198        O  0.49766828  0.02923658  0.94713332    -0.72610
O199        O  0.49809530  0.96926866  0.05270064    -0.73590
O200        O  0.49842182  0.05199747  0.02952686    -0.62210
O201        O  0.49705926  0.94609534  0.97004035    -0.70620
O202        O  0.56421077  0.94573255  0.96935586    -0.70170
O203        O  0.56558128  0.05138731  0.02897707    -0.61420
O204        O  0.56502628  0.96902356  0.05211190    -0.73930
O205        O  0.56472172  0.02794315  0.94617477    -0.72710
Cu206      Cu  0.49546380  0.99913393  0.99984569     1.04560
Cu207      Cu  0.56723209  0.99849293  0.99914280     1.04330
C208        C  0.53112515  0.03803975  0.93002482     0.93590
C209        C  0.53168390  0.95989152  0.06932088     0.92730
C210        C  0.53223052  0.06806427  0.03887641     0.84880
C211        C  0.53043348  0.92954918  0.96002479     0.91150
C212        C  0.25479298  0.71712014  0.15386513     0.03470
C213        C  0.22435547  0.71613493  0.18323459    -0.12680
C214        C  0.19819094  0.74901128  0.18803547     0.00970
C215        C  0.20223861  0.78293473  0.16303684    -0.11210
C216        C  0.23205063  0.78405463  0.13297448     0.03460
C217        C  0.25836023  0.75095571  0.12843447    -0.10630
H218        H  0.22124111  0.68986258  0.20261600     0.09050
H219        H  0.18202693  0.80848238  0.16691683     0.06580
H220        H  0.28143443  0.75147718  0.10526764     0.06430
C221        C  0.24971793  0.28356195  0.84420976     0.03470
C222        C  0.21858507  0.28321632  0.81539478    -0.12680
C223        C  0.19386343  0.24912436  0.81073040     0.00970
C224        C  0.19961422  0.21544588  0.83572802    -0.11210
C225        C  0.22965622  0.21594595  0.86551281     0.03460
C226        C  0.25480645  0.24991792  0.86970019    -0.10630
H227        H  0.21379492  0.30937627  0.79622182     0.09050
H228        H  0.18042693  0.18902775  0.83233960     0.06580
H229        H  0.27846650  0.24993686  0.89234184     0.06430
C230        C  0.25205278  0.84726712  0.71724609     0.03470
C231        C  0.22251936  0.81662957  0.71763677    -0.12680
C232        C  0.19767266  0.81088522  0.75118566     0.00970
C233        C  0.20248767  0.83557597  0.78509484    -0.11210
C234        C  0.23183447  0.86633852  0.78582883     0.03460
C235        C  0.25658584  0.87206610  0.75165137    -0.10630
H236        H  0.21898231  0.79671121  0.69186095     0.09050
H237        H  0.18252794  0.83135672  0.81066279     0.06580
H238        H  0.27908185  0.89581068  0.75178142     0.06430
O239        O  0.20458078  0.05573379  0.97285541    -0.72610
O240        O  0.20399064  0.94858302  0.02915226    -0.73590
O241        O  0.20492346  0.03037103  0.05468898    -0.62210
O242        O  0.20380845  0.97323124  0.94749131    -0.70620
O243        O  0.27091169  0.97082458  0.94821105    -0.70170
O244        O  0.27193498  0.03252894  0.05262265    -0.61420
O245        O  0.27089013  0.94875623  0.03097290    -0.73930
O246        O  0.27155888  0.05385341  0.96958779    -0.72710
Cu247      Cu  0.20199105  0.00205607  0.00103700     1.04560
Cu248      Cu  0.27368960  0.00149968  0.00038698     1.04330
C249        C  0.23806717  0.07147333  0.96187003     0.93590
C250        C  0.23719409  0.93164078  0.03915750     0.92730
C251        C  0.23866193  0.04092324  0.07025534     0.84880
C252        C  0.23719901  0.96240594  0.93147214     0.91150
C253        C  0.66801541  0.86825360  0.65543568     0.03470
C254        C  0.63361537  0.87218446  0.63079197    -0.12680
C255        C  0.60089111  0.84509894  0.63489384     0.00970
C256        C  0.60334951  0.81435601  0.66418693    -0.11210
C257        C  0.63726694  0.81072483  0.68912588     0.03460
C258        C  0.66966489  0.83741747  0.68442517    -0.10630
H259        H  0.63212910  0.89693260  0.60943436     0.09050
H260        H  0.57893381  0.79274879  0.66756329     0.06580
H261        H  0.69605146  0.83445957  0.70363076     0.06430
C262        C  0.72785788  0.28383733  0.63383483     0.03470
C263        C  0.70021079  0.28405707  0.66597684    -0.12680
C264        C  0.69645888  0.25041049  0.69141590     0.00970
C265        C  0.72146416  0.21673155  0.68557915    -0.11210
C266        C  0.75008775  0.21653643  0.65450367     0.03460
C267        C  0.75309492  0.24994469  0.62843649    -0.10630
H268        H  0.68121376  0.31029120  0.67103726     0.09050
H269        H  0.71878569  0.19069842  0.70534806     0.06580
H270        H  0.77484985  0.24945242  0.60402942     0.06430
C271        C  0.02131220  0.78710928  0.65204381     0.03470
C272        C  0.01417307  0.75235628  0.62846350    -0.12680
C273        C  0.03705420  0.71697613  0.63459813     0.00970
C274        C  0.06678026  0.71645838  0.66484431    -0.11210
C275        C  0.07433934  0.75095984  0.68826844     0.03460
C276        C  0.05154654  0.78608484  0.68179395    -0.10630
H277        H  0.99077439  0.75279094  0.60557284     0.09050
H278        H  0.08470094  0.68938390  0.66959754     0.06580
H279        H  0.05658371  0.81226922  0.70088061     0.06430
O280        O  0.83178195  0.97037859  0.61210243    -0.72610
O281        O  0.93623494  0.03232817  0.61095323    -0.73590
O282        O  0.91508779  0.94900047  0.61073450    -0.62210
O283        O  0.85298885  0.05357977  0.61215241    -0.70620
O284        O  0.85700880  0.05478122  0.67899842    -0.70170
O285        O  0.91383925  0.94731091  0.67777592    -0.61420
O286        O  0.93887782  0.02912370  0.67780654    -0.73930
O287        O  0.83160286  0.97250866  0.67895166    -0.72710
Cu288      Cu  0.88396550  0.00130910  0.60914203     1.04560
Cu289      Cu  0.88530289  0.00090677  0.68072955     1.04330
C290        C  0.81485752  0.96205928  0.64573592     0.93590
C291        C  0.95431928  0.04000817  0.64419405     0.92730
C292        C  0.92421982  0.93181209  0.64403673     0.84880
C293        C  0.84565496  0.07095196  0.64582018     0.91150
C294        C  0.53959505  0.13138361  0.78365479     0.03470
C295        C  0.56824884  0.16254998  0.78524400    -0.12680
C296        C  0.57398179  0.18799178  0.75200703     0.00970
C297        C  0.55019398  0.18278529  0.71742877    -0.11210
C298        C  0.52099338  0.15188084  0.71533525     0.03460
C299        C  0.51619974  0.12583825  0.74869577    -0.10630
H300        H  0.58658538  0.16650517  0.81210266     0.09050
H301        H  0.55417214  0.20340838  0.69230120     0.06580
H302        H  0.49489814  0.10097838  0.74745717     0.06430
C303        C  0.23200909  0.13401600  0.21695760     0.03470
C304        C  0.20310131  0.16495056  0.21591688    -0.12680
C305        C  0.19702962  0.18970341  0.24964409     0.00970
C306        C  0.22086337  0.18416155  0.28411573    -0.11210
C307        C  0.25044168  0.15362699  0.28560726     0.03460
C308        C  0.25546486  0.12813205  0.25183612    -0.10630
H309        H  0.18470182  0.16913686  0.18914015     0.09050
H310        H  0.21669697  0.20428959  0.30962389     0.06580
H311        H  0.27708493  0.10354254  0.25266929     0.06430
C312        C  0.17063474  0.15149165  0.63417282     0.03470
C313        C  0.13712416  0.12559775  0.62915931    -0.12680
C314        C  0.10217612  0.13116061  0.65246760     0.00970
C315        C  0.10075751  0.16208405  0.68131606    -0.11210
C316        C  0.13409742  0.18739187  0.68724324     0.03460
C317        C  0.16864098  0.18228945  0.66347996    -0.10630
H318        H  0.13824950  0.10077497  0.60784061     0.09050
H319        H  0.07390547  0.16598631  0.69962551     0.06580
H320        H  0.19380862  0.20289183  0.66759730     0.06430
O321        O  0.33401973  0.17861744  0.53237400    -0.72610
O322        O  0.43750196  0.18081225  0.47005463    -0.73590
O323        O  0.35402613  0.18013468  0.44916517    -0.62210
O324        O  0.41716379  0.17918826  0.55268849    -0.70620
O325        O  0.41625415  0.11185229  0.55244656    -0.70170
O326        O  0.35657438  0.11288767  0.44685327    -0.61420
O327        O  0.43930783  0.11370979  0.46988904    -0.73930
O328        O  0.33349040  0.11133627  0.52932956    -0.72710
Cu329      Cu  0.38561397  0.18204471  0.50104210     1.04560
Cu330      Cu  0.38641604  0.11007671  0.49955988     1.04330
C331        C  0.31750993  0.14467141  0.54062125     0.93590
C332        C  0.45525171  0.14776290  0.46068276     0.92730
C333        C  0.34546061  0.14666738  0.43176451     0.84880
C334        C  0.42653822  0.14534058  0.56880426     0.91150
C335        C  0.10428147  0.86792898  0.34240424     0.03470
C336        C  0.13899870  0.87447749  0.36610956    -0.12680
C337        C  0.17301499  0.84916565  0.36193210     0.00970
C338        C  0.17153053  0.81695386  0.33429196    -0.11210
C339        C  0.13720687  0.81028603  0.31062662     0.03460
C340        C  0.10348033  0.83530619  0.31522986    -0.10630
H341        H  0.13984847  0.89972994  0.38699236     0.09050
H342        H  0.19688632  0.79641883  0.33148899     0.06580
H343        H  0.07676025  0.82967152  0.29714271     0.06430
C344        C  0.75082607  0.78581145  0.34767385     0.03470
C345        C  0.75750130  0.75144546  0.37185411    -0.12680
C346        C  0.73413223  0.71636605  0.36612889     0.00970
C347        C  0.70452108  0.71554405  0.33587352    -0.11210
C348        C  0.69728383  0.74983796  0.31208428     0.03460
C349        C  0.72048052  0.78480095  0.31808517    -0.10630
H350        H  0.78061609  0.75202014  0.39504177     0.09050
H351        H  0.68639273  0.68851484  0.33156601     0.06580
H352        H  0.71555683  0.81095218  0.29892620     0.06430
C353        C  0.60200761  0.15457502  0.36645546     0.03470
C354        C  0.60246834  0.18475991  0.33666126    -0.12680
C355        C  0.63610821  0.18969849  0.31166827     0.00970
C356        C  0.66952928  0.16424875  0.31639115    -0.11210
C357        C  0.66937066  0.13330290  0.34546416     0.03460
C358        C  0.63545039  0.12861161  0.37058971    -0.10630
H359        H  0.57660894  0.20458667  0.33299492     0.09050
H360        H  0.69557557  0.16826232  0.29698526     0.06580
H361        H  0.63502534  0.10491744  0.39317810     0.06430
C362        C  0.03828588  0.28517492  0.36526367     0.03470
C363        C  0.06822638  0.28491674  0.33528604    -0.12680
C364        C  0.07381680  0.25086964  0.31073040     0.00970
C365        C  0.04933565  0.21676465  0.31617446    -0.11210
C366        C  0.01857768  0.21691992  0.34517501     0.03460
C367        C  0.01293109  0.25123006  0.36966599    -0.10630
H368        H  0.08756407  0.31113514  0.33134344     0.09050
H369        H  0.05366466  0.19032001  0.29723982     0.06580
H370        H  0.98979991  0.25097965  0.39277453     0.06430
O371        O  0.85801254  0.94617615  0.31872636    -0.72610
O372        O  0.91488109  0.05394788  0.31772487    -0.73590
O373        O  0.93993714  0.97175373  0.31832695    -0.62210
O374        O  0.83328346  0.02815537  0.31773156    -0.70620
O375        O  0.83361870  0.03063762  0.38450389    -0.70170
O376        O  0.93970353  0.97043960  0.38514173    -0.61420
O377        O  0.91689463  0.05311147  0.38474967    -0.73930
O378        O  0.85647697  0.94794553  0.38575481    -0.72710
Cu379      Cu  0.88655742  0.99996949  0.31581586     1.04560
Cu380      Cu  0.88668724  0.00055620  0.38740069     1.04330
C381        C  0.84763918  0.93062864  0.35246536     0.93590
C382        C  0.92530836  0.07009830  0.35120488     0.92730
C383        C  0.95681902  0.96190520  0.35160728     0.84880
C384        C  0.81642106  0.03851076  0.35078162     0.91150
C385        C  0.60640525  0.25030459  0.21961406     0.03470
C386        C  0.60636639  0.22075201  0.24997732    -0.12680
C387        C  0.63611019  0.22107253  0.28010462     0.00970
C388        C  0.66599973  0.25114531  0.27976313    -0.11210
C389        C  0.66616137  0.28079362  0.24948015     0.03460
C390        C  0.63631130  0.28030922  0.21946789    -0.10630
H391        H  0.58323786  0.19748214  0.25011648     0.09050
H392        H  0.68909073  0.25147262  0.30300025     0.06580
H393        H  0.63634426  0.30325047  0.19605631     0.06430
C394        C  0.66537745  0.74932968  0.28100746     0.03470
C395        C  0.63531320  0.77926259  0.28090549    -0.12680
C396        C  0.60523367  0.77928935  0.25110460     0.00970
C397        C  0.60521778  0.74911683  0.22132388    -0.11210
C398        C  0.63511926  0.71902663  0.22123370     0.03460
C399        C  0.66513514  0.71924035  0.25113692    -0.10630
H400        H  0.63539901  0.80261832  0.30392482     0.09050
H401        H  0.58205476  0.74915428  0.19815655     0.06580
H402        H  0.68839825  0.69612434  0.25103561     0.06430
C403        C  0.10770020  0.71762628  0.25020735     0.03470
C404        C  0.10774613  0.74782807  0.28000395    -0.12680
C405        C  0.13734849  0.77814230  0.27982852     0.00970
C406        C  0.16694937  0.77825948  0.24965055    -0.11210
C407        C  0.16708531  0.74829790  0.21972453     0.03460
C408        C  0.13745129  0.71793399  0.22009578    -0.10630
H409        H  0.08463585  0.74787543  0.30316416     0.09050
H410        H  0.18980190  0.80180608  0.24934376     0.06580
H411        H  0.13741740  0.69475329  0.19691017     0.06430
C412        C  0.13496995  0.71963291  0.77999584     0.03470
C413        C  0.16530001  0.74927172  0.78029276    -0.12680
C414        C  0.16606308  0.77943228  0.75053029     0.00970
C415        C  0.13631661  0.77979595  0.72033425    -0.11210
C416        C  0.10584684  0.75025261  0.71981993     0.03460
C417        C  0.10532719  0.72022674  0.74972461    -0.10630
H418        H  0.18819906  0.74894475  0.80371872     0.09050
H419        H  0.13681062  0.80314442  0.69733197     0.06580
H420        H  0.08178071  0.69738310  0.74953048     0.06430
C421        C  0.13326881  0.21875448  0.71883705     0.03470
C422        C  0.10316289  0.24860407  0.71870463    -0.12680
C423        C  0.10255269  0.27851407  0.74875390     0.00970
C424        C  0.13221812  0.27844892  0.77899266    -0.11210
C425        C  0.16234302  0.24865737  0.77935192     0.03460
C426        C  0.16276080  0.21884893  0.74925187    -0.10630
H427        H  0.08027353  0.24855974  0.69526919     0.09050
H428        H  0.13192001  0.30162799  0.80218587     0.06580
H429        H  0.18612737  0.19583412  0.74939550     0.06430
C430        C  0.60544411  0.21956431  0.75283361     0.03470
C431        C  0.60499970  0.24980891  0.78253744    -0.12680
C432        C  0.63458527  0.28028108  0.78269308     0.00970
C433        C  0.66475925  0.28024075  0.75296987    -0.11210
C434        C  0.66545683  0.24998180  0.72328363     0.03460
C435        C  0.63577258  0.21972518  0.72335948    -0.10630
H436        H  0.58156794  0.24973234  0.80536761     0.09050
H437        H  0.68754238  0.30384278  0.75280144     0.06580
H438        H  0.63607373  0.19645725  0.70025013     0.06430
C439        C  0.66849056  0.71964133  0.75089167     0.03470
C440        C  0.63838187  0.71945120  0.78060032    -0.12680
C441        C  0.60820981  0.74919467  0.78057264     0.00970
C442        C  0.60822663  0.77919421  0.75068878    -0.11210
C443        C  0.63816873  0.77954907  0.72084505     0.03460
C444        C  0.66835675  0.74980971  0.72107762    -0.10630
H445        H  0.63826755  0.69603756  0.80354386     0.09050
H446        H  0.58476786  0.80211885  0.75049104     0.06580
H447        H  0.69146870  0.74993023  0.69792172     0.06430
C448        C  0.13492632  0.28092055  0.21927099     0.03470
C449        C  0.16497603  0.25099710  0.21935149    -0.12680
C450        C  0.16531839  0.22102736  0.24930400     0.00970
C451        C  0.13536438  0.22108856  0.27921150    -0.11210
C452        C  0.10526166  0.25093955  0.27932214     0.03460
C453        C  0.10514564  0.28080906  0.24928390    -0.10630
H454        H  0.18810343  0.25111145  0.19621142     0.09050
H455        H  0.13550783  0.19794154  0.30242115     0.06580
H456        H  0.08189570  0.30394040  0.24924617     0.06430
C457        C  0.99321813  0.18047485  0.34982222    -0.05130
C458        C  0.01105637  0.14435358  0.36320857    -0.32560
C459        C  0.98871538  0.10842105  0.36452794     0.36690
C460        C  0.94835803  0.10809761  0.35128335    -0.05480
C461        C  0.93038503  0.14415230  0.33790051    -0.32450
C462        C  0.95245560  0.18042576  0.33765514     0.36600
H463        H  0.04255577  0.14398627  0.37217031     0.16970
O464        O  0.00713157  0.07329853  0.37682602    -0.59950
H465        H  0.89927058  0.14413169  0.32768408     0.16980
O466        O  0.93464727  0.21518364  0.32360538    -0.60050
H467        H  0.92222207  0.22795171  0.34766840     0.43980
H468        H  0.00306860  0.07229186  0.40644548     0.43940
C469        C  0.70468225  0.10582524  0.34828919    -0.05130
C470        C  0.71998198  0.08842634  0.31284663    -0.32560
C471        C  0.75573792  0.06596866  0.31325845     0.36690
C472        C  0.77704509  0.06015382  0.34981257    -0.05480
C473        C  0.76081176  0.07633383  0.38559924    -0.32450
C474        C  0.72491916  0.09892742  0.38504774     0.36600
H475        H  0.70442139  0.09289208  0.28438881     0.16970
O476        O  0.76937339  0.04984503  0.27762181    -0.59950
H477        H  0.77646441  0.07240031  0.41405818     0.16980
O478        O  0.71136922  0.11633045  0.42010229    -0.60050
H479        H  0.69848668  0.09399570  0.43542048     0.43980
H480        H  0.78402069  0.07222819  0.26404063     0.43940
C481        C  0.77597628  0.82263976  0.35208177    -0.05130
C482        C  0.81813047  0.82003129  0.34777822    -0.32560
C483        C  0.84201630  0.85511471  0.34804493     0.36690
C484        C  0.82376369  0.89321273  0.35304581    -0.05480
C485        C  0.78193005  0.89580768  0.35860131    -0.32450
C486        C  0.75794329  0.86089910  0.35776027     0.36600
H487        H  0.83236630  0.79086188  0.34304659     0.16970
O488        O  0.88297474  0.85198205  0.34267564    -0.59950
H489        H  0.76775049  0.92508398  0.36293098     0.16980
O490        O  0.71700297  0.86426945  0.36336218    -0.60050
H491        H  0.70632521  0.87578004  0.33783686     0.43980
H492        H  0.89446946  0.85059500  0.37029576     0.43940
C493        C  0.06866327  0.89498474  0.34538894    -0.05130
C494        C  0.05071643  0.90245059  0.38300720    -0.32560
C495        C  0.01468555  0.92464854  0.38584107     0.36690
C496        C  0.99617926  0.94019760  0.35062558    -0.05480
C497        C  0.01536606  0.93411464  0.31326158    -0.32450
C498        C  0.05109088  0.91171642  0.31044721     0.36600
H499        H  0.06395985  0.88988492  0.41017923     0.16970
O500        O  0.99777770  0.93051459  0.42314561    -0.59950
H501        H  0.00248754  0.94638310  0.28579062     0.16980
O502        O  0.06929421  0.90721625  0.27349992    -0.60050
H503        H  0.05155076  0.88864047  0.25798421     0.43980
H504        H  0.98074374  0.90627004  0.42789651     0.43940
C505        C  0.49433109  0.14894250  0.43881337    -0.05130
C506        C  0.50857447  0.11399946  0.41909006    -0.32560
C507        C  0.54438123  0.11491669  0.39654691     0.36690
C508        C  0.56644672  0.15119788  0.39326293    -0.05480
C509        C  0.55295461  0.18574368  0.41387525    -0.32450
C510        C  0.51751283  0.18481463  0.43671451     0.36600
H511        H  0.49139956  0.08608211  0.42021104     0.16970
O512        O  0.55613014  0.08099002  0.37573443    -0.59950
H513        H  0.56989642  0.21378131  0.41195114     0.16980
O514        O  0.50572750  0.21937073  0.45645189    -0.60050
H515        H  0.51806215  0.21739176  0.48367718     0.43980
H516        H  0.56905582  0.06322090  0.39612284     0.43940
C517        C  0.20812321  0.14673194  0.60974035    -0.05130
C518        C  0.24595431  0.15225545  0.62847664    -0.32560
C519        C  0.28163282  0.15175768  0.60602563     0.36690
C520        C  0.28022680  0.14413033  0.56441930    -0.05480
C521        C  0.24295969  0.13742252  0.54553442    -0.32450
C522        C  0.20692777  0.13900115  0.56777050     0.36600
H523        H  0.24794164  0.15749307  0.66069367     0.16970
O524        O  0.31786841  0.15832913  0.62508829    -0.59950
H525        H  0.24170232  0.13210286  0.51328879     0.16980
O526        O  0.17076596  0.13568470  0.54775561    -0.60050
H527        H  0.16869579  0.10681256  0.53970327     0.43980
H528        H  0.32209688  0.18806080  0.62400187     0.43940
C529        C  0.27532714  0.14892755  0.32281439    -0.05130
C530        C  0.25666840  0.15269680  0.36080285    -0.32560
C531        C  0.27945833  0.15231430  0.39633121     0.36690
C532        C  0.32144853  0.14696516  0.39452404    -0.05480
C533        C  0.34031013  0.14215122  0.35701341    -0.32450
C534        C  0.31762527  0.14332629  0.32119377     0.36600
H535        H  0.22422598  0.15641194  0.36299603     0.16970
O536        O  0.26036078  0.15665894  0.43279624    -0.59950
H537        H  0.37279451  0.13837643  0.35545573     0.16980
O538        O  0.33735642  0.14158655  0.28484966    -0.60050
H539        H  0.34608256  0.11299968  0.28189276     0.43980
H540        H  0.26034424  0.18620952  0.43822012     0.43940
C541        C  0.45051784  0.14503406  0.60603495    -0.05130
C542        C  0.43172096  0.13883989  0.64335809    -0.32560
C543        C  0.45422516  0.14015368  0.67927689     0.36690
C544        C  0.49632903  0.14725884  0.67793644    -0.05480
C545        C  0.51495828  0.15238481  0.64007882    -0.32450
C546        C  0.49228937  0.15194752  0.60447326     0.36600
H547        H  0.39937698  0.13397783  0.64472881     0.16970
O548        O  0.43439551  0.13713376  0.71548483    -0.59950
H549        H  0.54726296  0.15722354  0.63803743     0.16980
O550        O  0.51128183  0.15790048  0.56816884    -0.60050
H551        H  0.51031375  0.18757183  0.56353870     0.43980
H552        H  0.42620521  0.10831286  0.71770681     0.43940
C553        C  0.06670606  0.10476945  0.64738917    -0.05130
C554        C  0.03780738  0.11417292  0.61793409    -0.32560
C555        C  0.00139265  0.09263877  0.61590772     0.36690
C556        C  0.99339962  0.06158535  0.64399749    -0.05480
C557        C  0.02280856  0.05180998  0.67301774    -0.32450
C558        C  0.05939749  0.07298315  0.67461254     0.36600
H559        H  0.04297067  0.13912746  0.59733015     0.16970
O560        O  0.97271318  0.10405453  0.58825108    -0.59950
H561        H  0.01730820  0.02782007  0.69464418     0.16980
O562        O  0.08728103  0.06337293  0.70372821    -0.60050
H563        H  0.10617113  0.04421265  0.69050246     0.43980
H564        H  0.98041507  0.09022019  0.56285002     0.43940
C565        C  0.99639483  0.82414155  0.64699528    -0.05130
C566        C  0.95400340  0.82130142  0.64773567    -0.32560
C567        C  0.92999704  0.85624880  0.64619976     0.36690
C568        C  0.94833602  0.89454513  0.64368018    -0.05480
C569        C  0.99047000  0.89748933  0.64178311    -0.32450
C570        C  0.01456342  0.86267560  0.64362442     0.36600
H571        H  0.93952730  0.79200586  0.65064507     0.16970
O572        O  0.88875603  0.85277976  0.64819687    -0.59950
H573        H  0.00475633  0.92695063  0.63944189     0.16980
O574        O  0.05578162  0.86644266  0.64100890    -0.60050
H575        H  0.06443003  0.87876798  0.66693290     0.43980
H576        H  0.87950934  0.85211152  0.61972322     0.43940
C577        C  0.77659136  0.18099848  0.64972943    -0.05130
C578        C  0.80869198  0.17520143  0.67674302    -0.32560
C579        C  0.83207133  0.13990097  0.67516831     0.36690
C580        C  0.82322851  0.10964525  0.64642549    -0.05480
C581        C  0.79168868  0.11604973  0.61872333    -0.32450
C582        C  0.76813817  0.15125321  0.62055487     0.36600
H583        H  0.81527371  0.19793042  0.69943051     0.16970
O584        O  0.86343590  0.13527053  0.70186689    -0.59950
H585        H  0.78435687  0.09305739  0.59653997     0.16980
O586        O  0.73625289  0.15585385  0.59447956    -0.60050
H587        H  0.71257197  0.14451814  0.60892613     0.43980
H588        H  0.88767094  0.14521605  0.68732938     0.43940
C589        C  0.70285000  0.89586381  0.65119760    -0.05130
C590        C  0.72614640  0.89482204  0.61595053    -0.32560
C591        C  0.76232555  0.91673436  0.61337094     0.36690
C592        C  0.77568171  0.94020475  0.64648835    -0.05480
C593        C  0.75145894  0.94210516  0.68127461    -0.32450
C594        C  0.71529729  0.92031277  0.68369450     0.36600
H595        H  0.71706186  0.87568171  0.59095244     0.16970
O596        O  0.78551470  0.91294135  0.57931003    -0.59950
H597        H  0.76070621  0.96029943  0.70689535     0.16980
O598        O  0.69272031  0.92235494  0.71832407    -0.60050
H599        H  0.67218507  0.94358885  0.71305649     0.43980
H600        H  0.77402061  0.93258593  0.55980743     0.43940
C601        C  0.23910970  0.06338451  0.10872834    -0.05130
C602        C  0.21441751  0.05066503  0.14073344    -0.32560
C603        C  0.21352443  0.07239924  0.17704277     0.36690
C604        C  0.23680364  0.10778734  0.18129700    -0.05480
C605        C  0.26170536  0.12038394  0.14951086    -0.32450
C606        C  0.26311005  0.09833771  0.11341741     0.36600
H607        H  0.19580029  0.02384192  0.13753234     0.16970
O608        O  0.18871650  0.05972855  0.20766268    -0.59950
H609        H  0.27925459  0.14796069  0.15234931     0.16980
O610        O  0.28675909  0.11209812  0.08233516    -0.60050
H611        H  0.26863430  0.12915431  0.06559473     0.43980
H612        H  0.20606284  0.04274540  0.22526991     0.43940
C613        C  0.23589789  0.89183267  0.82273653    -0.05130
C614        C  0.23401948  0.87310774  0.86086909    -0.32560
C615        C  0.23403440  0.89607137  0.89629285     0.36690
C616        C  0.23686551  0.93840714  0.89421389    -0.05480
C617        C  0.23956552  0.95744398  0.85653278    -0.32450
C618        C  0.23902468  0.93449349  0.82081933     0.36600
H619        H  0.23210405  0.84042780  0.86324755     0.16970
O620        O  0.23153434  0.87684818  0.93291864    -0.59950
H621        H  0.24150905  0.99017132  0.85479170     0.16980
O622        O  0.23909176  0.95415449  0.78435210    -0.60050
H623        H  0.26704693  0.96441857  0.78091807     0.43980
H624        H  0.20226788  0.87584396  0.93925143     0.43940
C625        C  0.23446361  0.18054848  0.89199848    -0.05130
C626        C  0.20976013  0.17661476  0.92607604    -0.32560
C627        C  0.21133058  0.14153153  0.94971529     0.36690
C628        C  0.23791072  0.10988577  0.93927421    -0.05480
C629        C  0.26341315  0.11442067  0.90575610    -0.32450
C630        C  0.26139571  0.14928907  0.88182489     0.36600
H631        H  0.18877276  0.20053875  0.93392225     0.16970
O632        O  0.18669562  0.13839108  0.98282777    -0.59950
H633        H  0.28381758  0.09022804  0.89722895     0.16980
O634        O  0.28519318  0.15224649  0.84809707    -0.60050
H635        H  0.26852663  0.14114909  0.82577024     0.43980
H636        H  0.20345768  0.14754336  0.00593399     0.43940
C637        C  0.23486273  0.81993325  0.10639097    -0.05130
C638        C  0.20015622  0.83338645  0.08616365    -0.32560
C639        C  0.20075676  0.86892588  0.06329363     0.36690
C640        C  0.23648159  0.89225594  0.06076328    -0.05480
C641        C  0.27159331  0.87801365  0.08008590    -0.32450
C642        C  0.27092164  0.84225724  0.10286020     0.36600
H643        H  0.17227317  0.81630364  0.08834778     0.16970
O644        O  0.16599813  0.88067682  0.04399860    -0.59950
H645        H  0.29943534  0.89519675  0.07853902     0.16980
O646        O  0.30527386  0.83018959  0.12267777    -0.60050
H647        H  0.30326033  0.84234130  0.14997798     0.43980
H648        H  0.16756125  0.86822224  0.01680120     0.43940
C649        C  0.53467200  0.10476209  0.81895392    -0.05130
C650        C  0.50617181  0.11469215  0.84856027    -0.32560
C651        C  0.50404521  0.09249838  0.88451664     0.36690
C652        C  0.53112216  0.06027497  0.89138604    -0.05480
C653        C  0.55929982  0.05007860  0.86139091    -0.32450
C654        C  0.56091371  0.07187333  0.82518235     0.36600
H655        H  0.48632799  0.14043870  0.84423884     0.16970
O656        O  0.47735761  0.10430474  0.91388375    -0.59950
H657        H  0.58016870  0.02523241  0.86611544     0.16980
O658        O  0.58908723  0.06171747  0.79660342    -0.60050
H659        H  0.57482306  0.04320510  0.77778392     0.43980
H660        H  0.45133233  0.09145020  0.90642883     0.43940
C661        C  0.53695571  0.89407826  0.18165772    -0.05130
C662        C  0.50038071  0.89666363  0.16041848    -0.32560
C663        C  0.49783784  0.91857268  0.12424911     0.36690
C664        C  0.53236011  0.93832980  0.10867715    -0.05480
C665        C  0.56851030  0.93690649  0.13095561    -0.32450
C666        C  0.57098946  0.91500656  0.16703007     0.36600
H667        H  0.47402339  0.88049736  0.17120139     0.16970
O668        O  0.46197235  0.91872163  0.10348946    -0.59950
H669        H  0.59520116  0.95258150  0.12028706     0.16980
O670        O  0.60659207  0.91486839  0.18832831    -0.60050
H671        H  0.62513677  0.89718133  0.17280326     0.43980
H672        H  0.44595369  0.94094037  0.11568728     0.43940
C673        C  0.53325518  0.82055436  0.88964541    -0.05130
C674        C  0.53871811  0.85875740  0.87149024    -0.32560
C675        C  0.53801350  0.89424417  0.89440263     0.36690
C676        C  0.53014201  0.89232702  0.93591052    -0.05480
C677        C  0.52321795  0.85473363  0.95421602    -0.32450
C678        C  0.52501112  0.81884828  0.93149003     0.36600
H679        H  0.54424093  0.86118377  0.83936458     0.16970
O680        O  0.54476290  0.93080883  0.87589845    -0.59950
H681        H  0.51759686  0.85311178  0.98639025     0.16980
O682        O  0.52141718  0.78235900  0.95095671    -0.60050
H683        H  0.49245535  0.78009448  0.95828775     0.43980
H684        H  0.57439305  0.93508358  0.87748452     0.43940
C685        C  0.53512307  0.17688357  0.10927296    -0.05130
C686        C  0.54017831  0.13871207  0.12753680    -0.32560
C687        C  0.53964812  0.10325805  0.10457559     0.36690
C688        C  0.53279816  0.10531324  0.06286605    -0.05480
C689        C  0.52675661  0.14297629  0.04438101    -0.32450
C690        C  0.52809784  0.17877031  0.06723302     0.36600
H691        H  0.54492817  0.13630656  0.15980422     0.16970
O692        O  0.54529190  0.06658928  0.12324471    -0.59950
H693        H  0.52182725  0.14467492  0.01208236     0.16980
O694        O  0.52501417  0.21537753  0.04787590    -0.60050
H695        H  0.49617178  0.21787424  0.04011242     0.43980
H696        H  0.57482772  0.06164716  0.12214952     0.43940
C697        C  0.32228259  0.39151772  0.85274423    -0.05130
C698        C  0.31809335  0.37103421  0.81575451    -0.32560
C699        C  0.29547744  0.33537655  0.81288677     0.36690
C700        C  0.27655838  0.31931681  0.84737978    -0.05480
C701        C  0.28196382  0.33866174  0.88470194    -0.32450
C702        C  0.30465906  0.37440432  0.88763797     0.36600
H703        H  0.33208586  0.38281087  0.78864604     0.16970
O704        O  0.29290581  0.31574711  0.77643203    -0.59950
H705        H  0.26757725  0.32664024  0.91150516     0.16980
O706        O  0.30801305  0.39301975  0.92449277    -0.60050
H707        H  0.33160736  0.38004285  0.93767062     0.43980
H708        H  0.27518194  0.33289689  0.75937220     0.43940
C709        C  0.44680335  0.60721173  0.85393278    -0.05130
C710        C  0.48886844  0.60383604  0.85264901    -0.32560
C711        C  0.51318432  0.63843063  0.85052293     0.36690
C712        C  0.49532050  0.67730954  0.84955867    -0.05480
C713        C  0.45297738  0.68051516  0.85180852    -0.32450
C714        C  0.42874940  0.64571911  0.85408510     0.36600
H715        H  0.50294093  0.57418296  0.85308114     0.16970
O716        O  0.55443364  0.63403090  0.85090045    -0.59950
H717        H  0.43860812  0.70998040  0.85087425     0.16980
O718        O  0.38751522  0.64957580  0.85537831    -0.60050
H719        H  0.38057268  0.64944875  0.88448776     0.43980
H720        H  0.56141153  0.62128648  0.82468946     0.43940
C721        C  0.20183736  0.60576384  0.85129683    -0.05130
C722        C  0.20751936  0.57294502  0.82506573    -0.32560
C723        C  0.24344134  0.55057053  0.82607012     0.36690
C724        C  0.27427469  0.56106814  0.85354883    -0.05480
C725        C  0.26796400  0.59320371  0.88059785    -0.32450
C726        C  0.23223518  0.61586557  0.87919498     0.36600
H727        H  0.18436312  0.56523352  0.80322036     0.16970
O728        O  0.24816700  0.51862592  0.80001169    -0.59950
H729        H  0.29140812  0.60170797  0.90183430     0.16980
O730        O  0.22765822  0.64845440  0.90446778    -0.60050
H731        H  0.23833060  0.67196466  0.88917626     0.43980
H732        H  0.23943250  0.49440551  0.81542764     0.43940
C733        C  0.56135042  0.39140315  0.85347176    -0.05130
C734        C  0.52360500  0.37233124  0.85747022    -0.32560
C735        C  0.48797633  0.39506407  0.85827290     0.36690
C736        C  0.48970509  0.43744527  0.85505859    -0.05480
C737        C  0.52721008  0.45676323  0.85138352    -0.32450
C738        C  0.56302018  0.43403502  0.85084441     0.36600
H739        H  0.52175901  0.33961997  0.85953901     0.16970
O740        O  0.45152565  0.37560848  0.86191289    -0.59950
H741        H  0.52867871  0.48944030  0.84855612     0.16980
O742        O  0.59922002  0.45349347  0.84533962    -0.60050
H743        H  0.60605253  0.46530168  0.87201345     0.43980
H744        H  0.44212576  0.37106405  0.83383564     0.43940
C745        C  0.99045961  0.64356124  0.93745977    -0.05130
C746        C  0.98706730  0.64772370  0.89559923    -0.32560
C747        C  0.02158226  0.64926057  0.87128617     0.36690
C748        C  0.06039817  0.64700235  0.88899209    -0.05480
C749        C  0.06352639  0.64177733  0.93105005    -0.32450
C750        C  0.02882312  0.63982656  0.95521437     0.36600
H751        H  0.95747484  0.64981500  0.88168497     0.16970
O752        O  0.01708242  0.65139500  0.83013536    -0.59950
H753        H  0.09293880  0.64018777  0.94533677     0.16980
O754        O  0.03270711  0.63559654  0.99621005    -0.60050
H755        H  0.03128632  0.60601081  0.00120464     0.43980
H756        H  0.00535883  0.67850627  0.82465221     0.43940
C757        C  0.99080095  0.65153772  0.18223182    -0.05130
C758        C  0.98254399  0.61369373  0.16479513    -0.32560
C759        C  0.95998528  0.61075057  0.12906392     0.36690
C760        C  0.94488784  0.64610935  0.11027248    -0.05480
C761        C  0.95170401  0.68375291  0.12896020    -0.32450
C762        C  0.97443106  0.68666491  0.16445935     0.36600
H763        H  0.99475895  0.58637142  0.17820022     0.16970
O764        O  0.95328189  0.57315697  0.11274729    -0.59950
H765        H  0.93976175  0.71133408  0.11586084     0.16980
O766        O  0.97955978  0.72388488  0.18227239    -0.60050
H767        H  0.99784938  0.73915593  0.16410238     0.43980
H768        H  0.97728718  0.56758212  0.09576586     0.43940
C769        C  0.78023985  0.64634337  0.81926648    -0.05130
C770        C  0.80539792  0.67870548  0.83006522    -0.32560
C771        C  0.82813648  0.67739572  0.86556746     0.36690
C772        C  0.82535572  0.64353914  0.89148175    -0.05480
C773        C  0.80127620  0.61042994  0.87977209    -0.32450
C774        C  0.77866832  0.61176255  0.84398283     0.36600
H775        H  0.80698822  0.70537249  0.81105097     0.16970
O776        O  0.85266039  0.70962727  0.87474682    -0.59950
H777        H  0.79883097  0.58405293  0.89906083     0.16980
O778        O  0.75402756  0.57982118  0.83417283    -0.60050
H779        H  0.72736993  0.58657550  0.84603439     0.43980
H780        H  0.87962994  0.70220654  0.86402561     0.43940
C781        C  0.70631453  0.64761564  0.10984679    -0.05130
C782        C  0.70502328  0.65677024  0.06849402    -0.32560
C783        C  0.74030138  0.65539681  0.04517637     0.36690
C784        C  0.77712641  0.64406890  0.06312287    -0.05480
C785        C  0.77819218  0.63370357  0.10408941    -0.32450
C786        C  0.74319669  0.63598831  0.12761579     0.36600
H787        H  0.67686113  0.66606531  0.05459825     0.16970
O788        O  0.73865042  0.66565448  0.00509796    -0.59950
H789        H  0.80645713  0.62484348  0.11808285     0.16980
O790        O  0.74510944  0.62632730  0.16784590    -0.60050
H791        H  0.75620080  0.65077085  0.18130384     0.43980
H792        H  0.73468307  0.63969267  0.99055197     0.43940
C793        C  0.77622464  0.35842630  0.93740516    -0.05130
C794        C  0.73972376  0.34832034  0.95633079    -0.32560
C795        C  0.70357036  0.34743356  0.93421870     0.36690
C796        C  0.70400924  0.35576780  0.89253304    -0.05480
C797        C  0.74054213  0.36632414  0.87385532    -0.32450
C798        C  0.77646629  0.36786473  0.89607194     0.36600
H799        H  0.73936741  0.34071226  0.98814236     0.16970
O800        O  0.66846105  0.33602728  0.95298641    -0.59950
H801        H  0.74130032  0.37251799  0.84174533     0.16980
O802        O  0.81193659  0.37728662  0.87690426    -0.60050
H803        H  0.82140535  0.35139088  0.86505809     0.43980
H804        H  0.65763640  0.36121603  0.96517276     0.43940
C805        C  0.78011716  0.35014503  0.18050212    -0.05130
C806        C  0.78152928  0.38636969  0.15848362    -0.32560
C807        C  0.80352899  0.38881349  0.12245860     0.36690
C808        C  0.82455909  0.35455553  0.10791612    -0.05480
C809        C  0.82426714  0.31881838  0.13097697    -0.32450
C810        C  0.80225715  0.31643464  0.16689342     0.36600
H811        H  0.76434384  0.41242580  0.16851116     0.16970
O812        O  0.80239002  0.42413911  0.10072197    -0.59710
H813        H  0.84086845  0.29236906  0.12100642     0.16980
O814        O  0.80309058  0.28126660  0.18897859    -0.60050
H815        H  0.78582684  0.26187528  0.17394488     0.43980
H816        H  0.82370320  0.44150057  0.11271891     0.43940
C817        C  0.94615973  0.35399858  0.89175734    -0.05130
C818        C  0.92663012  0.35110777  0.85434248    -0.32560
C819        C  0.94909609  0.34965441  0.81852589     0.36690
C820        C  0.99165548  0.35049226  0.82014108    -0.05480
C821        C  0.01097236  0.35380356  0.85780360    -0.32450
C822        C  0.98850449  0.35549789  0.89342929     0.36600
H823        H  0.89400213  0.34954010  0.85292813     0.16970
O824        O  0.92936292  0.34500195  0.78238760    -0.59950
H825        H  0.04365707  0.35461842  0.85959108     0.16980
O826        O  0.00816285  0.35827617  0.92981341    -0.60050
H827        H  0.01156373  0.32991059  0.93908646     0.43980
H828        H  0.91856966  0.37222116  0.77574854     0.43940
C829        C  0.99361471  0.35073686  0.05849832    -0.05130
C830        C  0.00979953  0.38652505  0.07506577    -0.32560
C831        C  0.04559034  0.38587407  0.09773299     0.36690
C832        C  0.06590166  0.34900119  0.10431179    -0.05480
C833        C  0.05059173  0.31350043  0.08665226    -0.32450
C834        C  0.01484551  0.31403988  0.06410034     0.36600
H835        H  0.99416357  0.41511227  0.07139274     0.16970
O836        O  0.05893466  0.42093665  0.11555295    -0.59950
H837        H  0.06615562  0.28493572  0.09092362     0.16980
O838        O  0.00117870  0.27844971  0.04761321    -0.60050
H839        H  0.98638177  0.26463455  0.06968850     0.43980
H840        H  0.07153259  0.43680731  0.09349154     0.43940
C841        C  0.20315628  0.39608288  0.15096322    -0.05130
C842        C  0.22475531  0.39836058  0.11468628    -0.32560
C843        C  0.26078898  0.42052776  0.11234582     0.36690
C844        C  0.27582450  0.44090513  0.14678355    -0.05480
C845        C  0.25313131  0.43982002  0.18260024    -0.32450
C846        C  0.21720094  0.41761258  0.18487727     0.36600
H847        H  0.21440592  0.38169796  0.08844987     0.16970
O848        O  0.28197343  0.42027075  0.07680777    -0.59950
H849        H  0.26343299  0.45586540  0.20922482     0.16980
O850        O  0.19553219  0.41765050  0.22017633    -0.60050
H851        H  0.21102010  0.40027034  0.23906868     0.43980
H852        H  0.26990095  0.44224631  0.06035108     0.43940
C853        C  0.32738091  0.60984607  0.14540277    -0.05130
C854        C  0.32871944  0.63410642  0.18026468    -0.32560
C855        C  0.30632274  0.66990803  0.18271410     0.36690
C856        C  0.28228200  0.68220411  0.14993363    -0.05480
C857        C  0.28204096  0.65905586  0.11448056    -0.32450
C858        C  0.30434547  0.62307581  0.11199434     0.36600
H859        H  0.34675547  0.62506001  0.20604135     0.16970
O860        O  0.30836462  0.69300611  0.21710863    -0.59950
H861        H  0.26328172  0.66810945  0.08921859     0.16980
O862        O  0.30139566  0.59997017  0.07771314    -0.60050
H863        H  0.32150612  0.61155628  0.05881100     0.43980
H864        H  0.29087563  0.67903640  0.23699619     0.43940
C865        C  0.56592870  0.60679897  0.14889324    -0.05130
C866        C  0.55983593  0.57581129  0.17714531    -0.32560
C867        C  0.52478122  0.55213928  0.17595828     0.36690
C868        C  0.49510852  0.55953092  0.14630418    -0.05480
C869        C  0.50185236  0.58988799  0.11734969    -0.32450
C870        C  0.53681265  0.61376267  0.11880081     0.36600
H871        H  0.58212692  0.57036973  0.20050910     0.16970
O872        O  0.51975901  0.52199979  0.20399849    -0.59950
H873        H  0.47926414  0.59613791  0.09448640     0.16980
O874        O  0.54177155  0.64452517  0.09143689    -0.60050
H875        H  0.53011099  0.66885192  0.10459672     0.43980
H876        H  0.53001267  0.49706493  0.19080727     0.43940
C877        C  0.44431987  0.38910333  0.14942671    -0.05130
C878        C  0.46103329  0.37283775  0.11389367    -0.32560
C879        C  0.48367503  0.33695058  0.11480815     0.36690
C880        C  0.49010452  0.31677524  0.15165974    -0.05480
C881        C  0.47216218  0.33202782  0.18683436    -0.32450
C882        C  0.44955411  0.36776422  0.18604899     0.36600
H883        H  0.45756305  0.38852185  0.08538976     0.16970
O884        O  0.50164131  0.32337926  0.08006198    -0.59950
H885        H  0.47636419  0.31648650  0.21534464     0.16980
O886        O  0.43271372  0.38136329  0.22135595    -0.60050
H887        H  0.45475128  0.39595967  0.23553884     0.43980
H888        H  0.47998049  0.30910425  0.06501800     0.43940
C889        C  0.73595563  0.39142228  0.56029990    -0.05130
C890        C  0.69847895  0.37243193  0.56676606    -0.32560
C891        C  0.69558540  0.33693714  0.58971607     0.36690
C892        C  0.73056312  0.31948676  0.60665737    -0.05480
C893        C  0.76821203  0.33740656  0.59898516    -0.32450
C894        C  0.77113669  0.37308698  0.57624642     0.36600
H895        H  0.67104930  0.38524916  0.55429143     0.16970
O896        O  0.65857539  0.31874946  0.59438794    -0.59950
H897        H  0.79542558  0.32438231  0.61173728     0.16980
O898        O  0.80857050  0.38982540  0.57022632    -0.60050
H899        H  0.81343555  0.40720588  0.59415921     0.43980
H900        H  0.64299589  0.33691407  0.61243330     0.43940
C901        C  0.74199701  0.60856896  0.43758781    -0.05130
C902        C  0.72563133  0.64402468  0.45420093    -0.32560
C903        C  0.72494053  0.68004639  0.43183947     0.36690
C904        C  0.73956964  0.68042685  0.39198044    -0.05480
C905        C  0.75596592  0.64496483  0.37543436    -0.32450
C906        C  0.75777341  0.60929890  0.39819905     0.36600
H907        H  0.71322034  0.64369401  0.48443206     0.16970
O908        O  0.70800082  0.71414202  0.44834021    -0.59950
H909        H  0.76672621  0.64482165  0.34455895     0.16980
O910        O  0.77264062  0.57464490  0.38085810    -0.60050
H911        H  0.80206151  0.57512778  0.38644633     0.43980
H912        H  0.73061268  0.72835346  0.46198507     0.43940
C913        C  0.73807373  0.44103220  0.38999519    -0.05130
C914        C  0.70209356  0.43993878  0.36743589    -0.32560
C915        C  0.69972447  0.41795661  0.33142148     0.36690
C916        C  0.73370809  0.39673151  0.31719183    -0.05480
C917        C  0.77012738  0.39903118  0.33865326    -0.32450
C918        C  0.77256839  0.42095073  0.37475953     0.36600
H919        H  0.67543869  0.45580861  0.37788818     0.16970
O920        O  0.66427397  0.41788744  0.30987305    -0.59950
H921        H  0.79640195  0.38255942  0.32813299     0.16980
O922        O  0.80829088  0.42078530  0.39577107    -0.60050
H923        H  0.82455664  0.44294570  0.38378573     0.43980
H924        H  0.64559901  0.40017581  0.32522030     0.43940
C925        C  0.73799962  0.60763091  0.67853957    -0.05130
C926        C  0.73966349  0.62729585  0.64094404    -0.32560
C927        C  0.74057243  0.60508311  0.60509833     0.36690
C928        C  0.74040087  0.56262128  0.60641924    -0.05480
C929        C  0.73939764  0.54266388  0.64371013    -0.32450
C930        C  0.73830674  0.56490629  0.67978203     0.36600
H931        H  0.73971572  0.66008642  0.63935260     0.16970
O932        O  0.74140042  0.62510230  0.56883202    -0.59950
H933        H  0.73880640  0.50985641  0.64480847     0.16980
O934        O  0.73502729  0.54473547  0.71582145    -0.60050
H935        H  0.76240694  0.53389107  0.72139373     0.43980
H936        H  0.71263765  0.62919708  0.56146121     0.43940
C937        C  0.27949626  0.85905745  0.43583224    -0.05130
C938        C  0.28319308  0.85391126  0.39411409    -0.32560
C939        C  0.24886033  0.85237454  0.36946045     0.36690
C940        C  0.20995218  0.85535405  0.38673646    -0.05480
C941        C  0.20653702  0.86202983  0.42850746    -0.32450
C942        C  0.24104453  0.86426072  0.45293743     0.36600
H943        H  0.31285321  0.85085847  0.38060930     0.16970
O944        O  0.25360257  0.84926725  0.32840440    -0.59950
H945        H  0.17703369  0.86437222  0.44243105     0.16980
O946        O  0.23678126  0.87007055  0.49363056    -0.60050
H947        H  0.23887256  0.89976720  0.49760793     0.43980
H948        H  0.26537531  0.82205427  0.32361480     0.43940
C949        C  0.56343735  0.84887066  0.61002645    -0.05130
C950        C  0.52566179  0.84164363  0.62824822    -0.32560
C951        C  0.49005378  0.84187880  0.60559120     0.36690
C952        C  0.49135541  0.85098506  0.56430036    -0.05480
C953        C  0.52853515  0.85921053  0.54588916    -0.32450
C954        C  0.56456454  0.85780076  0.56829644     0.36600
H955        H  0.52360148  0.83560173  0.66030738     0.16970
O956        O  0.45390205  0.83419854  0.62430048    -0.59950
H957        H  0.52971444  0.86587363  0.51388635     0.16980
O958        O  0.60069145  0.86278953  0.54866159    -0.60050
H959        H  0.60186344  0.89190267  0.54133686     0.43980
H960        H  0.45017102  0.80444515  0.62236196     0.43940
C961        C  0.44569694  0.85121614  0.39211539    -0.05130
C962        C  0.46295093  0.88674875  0.37615233    -0.32560
C963        C  0.48537401  0.88583572  0.34025338     0.36690
C964        C  0.49102382  0.84896292  0.31966595    -0.05480
C965        C  0.47266479  0.81377428  0.33475771    -0.32450
C966        C  0.45031757  0.81456999  0.37054198     0.36600
H967        H  0.45997197  0.91528352  0.39202442     0.16970
O968        O  0.50381835  0.92058496  0.32701924    -0.59950
H969        H  0.47621282  0.78523573  0.31896770     0.16980
O970        O  0.43291246  0.77929812  0.38383143    -0.60050
H971        H  0.45475121  0.76461153  0.39819934     0.43980
H972        H  0.48206219  0.93671008  0.31414807     0.43940
C973        C  0.32188909  0.85727253  0.60781426    -0.05130
C974        C  0.34113498  0.86216608  0.64521658    -0.32560
C975        C  0.31894043  0.85987013  0.68132648     0.36690
C976        C  0.27673836  0.85325565  0.68006801    -0.05480
C977        C  0.25774539  0.84973251  0.64220079    -0.32450
C978        C  0.28006942  0.85073593  0.60652799     0.36600
H979        H  0.37356945  0.86644582  0.64647982     0.16970
O980        O  0.33913058  0.86130018  0.71747902    -0.59950
H981        H  0.22537042  0.84532870  0.64016553     0.16980
O982        O  0.26067258  0.84522257  0.57039058    -0.60050
H983        H  0.26098098  0.81554774  0.56569639     0.43980
H984        H  0.34753417  0.88995091  0.72079727     0.43940
C985        C  0.03049337  0.68021943  0.60971689    -0.05130
C986        C  0.02426888  0.64277659  0.62889527    -0.32560
C987        C  0.02180946  0.60694733  0.60644812     0.36690
C988        C  0.02559055  0.60817667  0.56426124    -0.05480
C989        C  0.03125952  0.64547080  0.54487356    -0.32450
C990        C  0.03335432  0.68148131  0.56728076     0.36600
H991        H  0.02202881  0.64126856  0.66148759     0.16970
O992        O  0.01663474  0.57071959  0.62603250    -0.59950
H993        H  0.03476214  0.64659386  0.51241438     0.16980
O994        O  0.04083657  0.71732753  0.54773711    -0.60050
H995        H  0.01447475  0.72566937  0.53617511     0.43980
H996        H  0.04434951  0.56141323  0.63277817     0.43940
C997        C  0.03245147  0.39216768  0.43961630    -0.05130
C998        C  0.99735592  0.37723420  0.42067437    -0.32560
C999        C  0.99849322  0.34190527  0.39719735     0.36690
C1000       C  0.03503605  0.32067040  0.39247017    -0.05480
C1001       C  0.06977750  0.33478559  0.41231123    -0.32450
C1002       C  0.06871321  0.36991502  0.43588431     0.36600
H1003       H  0.96907320  0.39354604  0.42311664     0.16970
O1004       O  0.96404707  0.32919632  0.37792820    -0.59950
H1005       H  0.09805930  0.31852713  0.40930431     0.16980
O1006       O  0.10352553  0.38233190  0.45467932    -0.60050
H1007       H  0.10302846  0.36912207  0.48155846     0.43980
H1008       H  0.96518408  0.34173387  0.35075722     0.43940
C1009       C  0.03202615  0.60967923  0.32290333    -0.05130
C1010       C  0.03468376  0.62886195  0.36073363    -0.32560
C1011       C  0.03326855  0.60643087  0.39642450     0.36690
C1012       C  0.02816238  0.56428236  0.39487187    -0.05480
C1013       C  0.02441285  0.54489988  0.35742416    -0.32450
C1014       C  0.02639613  0.56729245  0.32145397     0.36600
H1015       H  0.03850294  0.66140992  0.36264389     0.16970
O1016       O  0.03677628  0.62598452  0.43278657    -0.59950
H1017       H  0.02094002  0.51228085  0.35606483     0.16980
O1018       O  0.02547936  0.54723451  0.28519576    -0.60050
H1019       H  0.99685108  0.53932119  0.28117279     0.43980
H1020       H  0.06614801  0.62636822  0.43873852     0.43940
C1021       C  0.02923597  0.43891161  0.60917489    -0.05130
C1022       C  0.99929891  0.40959422  0.61647689    -0.32560
C1023       C  0.00053094  0.38567669  0.65135404     0.36690
C1024       C  0.03147033  0.39148473  0.67982605    -0.05480
C1025       C  0.06080844  0.42132625  0.67317320    -0.32450
C1026       C  0.05979034  0.44512768  0.63824130     0.36600
H1027       H  0.97568662  0.40422775  0.59443250     0.16970
O1028       O  0.97207536  0.35598034  0.65685093    -0.59950
H1029       H  0.08484123  0.42583926  0.69496631     0.16980
O1030       O  0.08889691  0.47418298  0.63269699    -0.60050
H1031       H  0.08031411  0.49743340  0.64966227     0.43980
H1032       H  0.98409468  0.33115214  0.64500596     0.43940
loop_ 
_geom_bond_atom_site_label_1 
_geom_bond_atom_site_label_2 
_geom_bond_distance 
_geom_bond_site_symmetry_2 
_ccdc_geom_bond_type 
O1           Cu9   2.018       .  S
O1           C11   1.278   1_655  A
O2           Cu9   2.012       .  S
O2           C12   1.279   1_655  A
O3           Cu9   2.009       .  S
O3           C13   1.278   1_655  A
O4           Cu9   2.011       .  S
O4           C14   1.277   1_655  A
O5          Cu10   2.006       .  S
O5           C14   1.277       .  A
O6          Cu10   2.008       .  S
O6           C13   1.278       .  A
O7          Cu10   2.010       .  S
O7           C12   1.279       .  A
O8          Cu10   2.005       .  S
O8           C11   1.276       .  A
Cu9         Cu10   2.374   1_655  S
C11         C988   1.468       .  S
C12         C997   1.487       .  S
C13        C1021   1.478       .  S
C14        C1012   1.466       .  S
O15         Cu23   2.005       .  S
O15          C25   1.276       .  A
O16         Cu23   2.005       .  S
O16          C26   1.278       .  A
O17         Cu23   2.011       .  S
O17          C27   1.277       .  A
O18         Cu23   2.007       .  S
O18          C28   1.277       .  A
O19         Cu24   2.012       .  S
O19          C28   1.277       .  A
O20         Cu24   2.007       .  S
O20          C27   1.276       .  A
O21         Cu24   2.016       .  S
O21          C26   1.279       .  A
O22         Cu24   2.020       .  S
O22          C25   1.278       .  A
Cu23        Cu24   2.375       .  S
C25         C973   1.470       .  S
C26         C961   1.488       .  S
C27         C952   1.467       .  S
C28         C937   1.467       .  S
O29         Cu37   2.011       .  S
O29          C39   1.278       .  A
O30         Cu37   2.011       .  S
O30          C40   1.277       .  A
O31         Cu37   2.008       .  S
O31          C41   1.276       .  A
O32         Cu37   2.001       .  S
O32          C42   1.277       .  A
O33         Cu38   2.009       .  S
O33          C42   1.279       .  A
O34         Cu38   2.003       .  S
O34          C41   1.276       .  A
O35         Cu38   2.010       .  S
O35          C40   1.277       .  A
O36         Cu38   2.010       .  S
O36          C39   1.279       .  A
Cu37        Cu38   2.373       .  S
C39         C889   1.489       .  S
C40         C901   1.470       .  S
C41         C928   1.463       .  S
C42         C913   1.483       .  S
O43         Cu51   2.000       .  S
O43          C53   1.278       .  A
O44         Cu51   1.998       .  S
O44          C54   1.277       .  A
O45         Cu51   2.008       .  S
O45          C55   1.278       .  A
O46         Cu51   2.008       .  S
O46          C56   1.279       .  A
O47         Cu52   2.007       .  S
O47          C56   1.277       .  A
O48         Cu52   2.010       .  S
O48          C55   1.278       .  A
O49         Cu52   2.017       .  S
O49          C54   1.280       .  A
O50         Cu52   2.011       .  S
O50          C53   1.278       .  A
Cu51        Cu52   2.369       .  S
C53         C853   1.482       .  S
C54         C877   1.486       .  S
C55         C868   1.477       .  S
C56         C844   1.485       .  S
C57         C841   1.479       .  S
C57          C58   1.402       .  A
C57          C62   1.407       .  A
C58          C59   1.397       .  A
C58          H63   1.084       .  S
C59         C448   1.471       .  S
C59          C60   1.398       .  A
C60          C61   1.404       .  A
C60          H64   1.084       .  S
C61         C832   1.484       .  S
C61          C62   1.408       .  A
C62          H65   1.083       .  S
C66         C820   1.481   1_455  S
C66          C67   1.406       .  A
C66          C71   1.403       .  A
C67          C68   1.404       .  A
C67          H72   1.083   1_455  S
C68        C1024   1.472       .  S
C68          C69   1.400       .  A
C69          C70   1.399       .  A
C69          H73   1.084       .  S
C70         C423   1.472       .  S
C70          C71   1.399       .  A
C71          H74   1.084       .  S
C75         C916   1.477       .  S
C75          C76   1.402       .  A
C75          C80   1.406       .  A
C76          C77   1.397       .  A
C76          H81   1.084       .  S
C77         C389   1.470       .  S
C77          C78   1.398       .  A
C78          C79   1.403       .  A
C78          H82   1.084       .  S
C79         C805   1.478       .  S
C79          C80   1.406       .  A
C80          H83   1.084       .  S
O84         Cu92   2.011       .  S
O84          C94   1.277       .  A
O85         Cu92   2.011   1_554  S
O85          C95   1.279       .  A
O86         Cu92   2.006       .  S
O86          C96   1.276       .  A
O87         Cu92   2.011   1_554  S
O87          C97   1.278       .  A
O88         Cu93   2.003   1_554  S
O88          C97   1.278       .  A
O89         Cu93   2.007       .  S
O89          C96   1.277       .  A
O90         Cu93   2.008   1_554  S
O90          C95   1.278       .  A
O91         Cu93   2.009       .  S
O91          C94   1.277       .  A
Cu92        Cu93   2.373       .  S
C94         C793   1.468       .  S
C95         C829   1.487       .  S
C96         C817   1.464       .  S
C97         C808   1.483       .  S
C98         C865   1.472       .  S
C98          C99   1.404       .  A
C98         C103   1.401       .  A
C99         C100   1.405       .  A
C99         H104   1.084       .  S
C100        C781   1.476       .  S
C100        C101   1.402       .  A
C101        C102   1.401       .  A
C101        H105   1.084       .  S
C102        C398   1.473       .  S
C102        C103   1.400       .  A
C103        H106   1.084       .  S
C107        C925   1.482       .  S
C107        C108   1.404       .  A
C107        C112   1.407       .  A
C108        C109   1.398       .  A
C108        H113   1.084       .  S
C109        C439   1.471       .  S
C109        C110   1.398       .  A
C110        C111   1.401       .  A
C110        H114   1.084       .  S
C111        C769   1.474       .  S
C111        C112   1.405       .  A
C112        H115   1.083       .  S
C116        C757   1.483   1_455  S
C116        C117   1.404       .  A
C116        C121   1.408       .  A
C117        C118   1.397       .  A
C117        H122   1.084       .  S
C118        C403   1.473       .  S
C118        C119   1.398       .  A
C119        C120   1.405       .  A
C119        H123   1.084       .  S
C120       C1009   1.486       .  S
C120        C121   1.409       .  A
C121        H124   1.083   1_455  S
O125       Cu133   2.019   1_556  S
O125        C135   1.279       .  A
O126       Cu133   2.013       .  S
O126        C136   1.278       .  A
O127       Cu133   2.008       .  S
O127        C137   1.277       .  A
O128       Cu133   2.010   1_556  S
O128        C138   1.277       .  A
O129       Cu134   2.008   1_556  S
O129        C138   1.277       .  A
O130       Cu134   2.010       .  S
O130        C137   1.277       .  A
O131       Cu134   2.004       .  S
O131        C136   1.278       .  A
O132       Cu134   1.995   1_556  S
O132        C135   1.277       .  A
Cu133      Cu134   2.374       .  S
C135        C772   1.481       .  S
C136        C760   1.487       .  S
C137        C784   1.467       .  S
C138        C745   1.466       .  S
C139        C796   1.477       .  S
C139        C140   1.402       .  A
C139        C144   1.405       .  A
C140        C141   1.399       .  A
C140        H145   1.084       .  S
C141        C432   1.475       .  S
C141        C142   1.401       .  A
C142        C143   1.404       .  A
C142        H146   1.084       .  S
C143        C733   1.483       .  S
C143        C144   1.407       .  A
C144        H147   1.083       .  S
C148        C721   1.472       .  S
C148        C149   1.405       .  A
C148        C153   1.399       .  A
C149        C150   1.409       .  A
C149        H154   1.083       .  S
C150        C748   1.488       .  S
C150        C151   1.406       .  A
C151        C152   1.400       .  A
C151        H155   1.083       .  S
C152        C412   1.473       .  S
C152        C153   1.398       .  A
C153        H156   1.084       .  S
O157       Cu165   2.010       .  S
O157        C167   1.277       .  A
O158       Cu165   2.011       .  S
O158        C168   1.278       .  A
O159       Cu165   2.006       .  S
O159        C169   1.276       .  A
O160       Cu165   2.000       .  S
O160        C170   1.278       .  A
O161       Cu166   2.014       .  S
O161        C170   1.279       .  A
O162       Cu166   2.011       .  S
O162        C169   1.277       .  A
O163       Cu166   2.008       .  S
O163        C168   1.277       .  A
O164       Cu166   2.008       .  S
O164        C167   1.276       .  A
Cu165      Cu166   2.375       .  S
C167        C736   1.466       .  S
C168        C724   1.476       .  S
C169        C709   1.465       .  S
C170        C697   1.485       .  S
C171        C685   1.488       .  S
C171        C172   1.409       .  A
C171        C176   1.405       .  A
C172        C173   1.407       .  A
C172        H177   1.082       .  S
C173        C880   1.481       .  S
C173        C174   1.403       .  A
C174        C175   1.397       .  A
C174        H178   1.084       .  S
C175        C385   1.471       .  S
C175        C176   1.397       .  A
C176        H179   1.084       .  S
C180        C673   1.492       .  S
C180        C181   1.411       .  A
C180        C185   1.406       .  A
C181        C182   1.410       .  A
C181        H186   1.082       .  S
C182        C712   1.487       .  S
C182        C183   1.404       .  A
C183        C184   1.396       .  A
C183        H187   1.083       .  S
C184        C441   1.472       .  S
C184        C185   1.396       .  A
C185        H188   1.084       .  S
C189        C661   1.481       .  S
C189        C190   1.403       .  A
C189        C194   1.407       .  A
C190        C191   1.398       .  A
C190        H195   1.084       .  S
C191        C396   1.473       .  S
C191        C192   1.399       .  A
C192        C193   1.404       .  A
C192        H196   1.084       .  S
C193        C964   1.484       .  S
C193        C194   1.408       .  A
C194        H197   1.083       .  S
O198       Cu206   2.011   1_545  S
O198        C208   1.278       .  A
O199       Cu206   2.012   1_554  S
O199        C209   1.278       .  A
O200       Cu206   2.005   1_544  S
O200        C210   1.276       .  A
O201       Cu206   2.010       .  S
O201        C211   1.277       .  A
O202       Cu207   2.004       .  S
O202        C211   1.277       .  A
O203       Cu207   2.007   1_544  S
O203        C210   1.277       .  A
O204       Cu207   2.008   1_554  S
O204        C209   1.279       .  A
O205       Cu207   2.008   1_545  S
O205        C208   1.278       .  A
Cu206      Cu207   2.376       .  S
C208        C652   1.476       .  S
C209        C664   1.486       .  S
C210        C688   1.464       .  S
C211        C676   1.465       .  S
C212        C856   1.474       .  S
C212        C213   1.402       .  A
C212        C217   1.404       .  A
C213        C214   1.398       .  A
C213        H218   1.084       .  S
C214        C407   1.472       .  S
C214        C215   1.400       .  A
C215        C216   1.403       .  A
C215        H219   1.084       .  S
C216        C637   1.479       .  S
C216        C217   1.406       .  A
C217        H220   1.084       .  S
C221        C700   1.481       .  S
C221        C222   1.404       .  A
C221        C226   1.406       .  A
C222        C223   1.400       .  A
C222        H227   1.084       .  S
C223        C425   1.472       .  S
C223        C224   1.399       .  A
C224        C225   1.400       .  A
C224        H228   1.084       .  S
C225        C625   1.470       .  S
C225        C226   1.403       .  A
C226        H229   1.084       .  S
C230        C976   1.492       .  S
C230        C231   1.406       .  A
C230        C235   1.411       .  A
C231        C232   1.397       .  A
C231        H236   1.084       .  S
C232        C414   1.474       .  S
C232        C233   1.397       .  A
C233        C234   1.405       .  A
C233        H237   1.084       .  S
C234        C613   1.490       .  S
C234        C235   1.411       .  A
C235        H238   1.081       .  S
O239       Cu247   2.005   1_556  S
O239        C249   1.277       .  A
O240       Cu247   1.997   1_565  S
O240        C250   1.277       .  A
O241       Cu247   2.010       .  S
O241        C251   1.278       .  A
O242       Cu247   2.014   1_566  S
O242        C252   1.278       .  A
O243       Cu248   2.005   1_566  S
O243        C252   1.276       .  A
O244       Cu248   2.012       .  S
O244        C251   1.278       .  A
O245       Cu248   2.017   1_565  S
O245        C250   1.280       .  A
O246       Cu248   2.008   1_556  S
O246        C249   1.278       .  A
Cu247      Cu248   2.373       .  S
C249        C628   1.473       .  S
C250        C640   1.485       .  S
C251        C601   1.474       .  S
C252        C616   1.467       .  S
C253        C589   1.476       .  S
C253        C254   1.406       .  A
C253        C258   1.401       .  A
C254        C255   1.411       .  A
C254        H259   1.082       .  S
C255        C949   1.493       .  S
C255        C256   1.407       .  A
C256        C257   1.398       .  A
C256        H260   1.084       .  S
C257        C443   1.471       .  S
C257        C258   1.397       .  A
C258        H261   1.084       .  S
C262        C892   1.485       .  S
C262        C263   1.405       .  A
C262        C267   1.408       .  A
C263        C264   1.400       .  A
C263        H268   1.083       .  S
C264        C434   1.473       .  S
C264        C265   1.400       .  A
C265        C266   1.400       .  A
C265        H269   1.084       .  S
C266        C577   1.474       .  S
C266        C267   1.405       .  A
C267        H270   1.084       .  S
C271        C565   1.484   1_455  S
C271        C272   1.407       .  A
C271        C276   1.404       .  A
C272        C273   1.407       .  A
C272        H277   1.083   1_455  S
C273        C985   1.482       .  S
C273        C274   1.404       .  A
C274        C275   1.400       .  A
C274        H278   1.084       .  S
C275        C416   1.476       .  S
C275        C276   1.400       .  A
C276        H279   1.084       .  S
O280       Cu288   2.009   1_565  S
O280        C290   1.278       .  A
O281       Cu288   2.011       .  S
O281        C291   1.278       .  A
O282       Cu288   2.012   1_565  S
O282        C292   1.277       .  A
O283       Cu288   2.010       .  S
O283        C293   1.278       .  A
O284       Cu289   2.011       .  S
O284        C293   1.278       .  A
O285       Cu289   2.008   1_565  S
O285        C292   1.277       .  A
O286       Cu289   2.005       .  S
O286        C291   1.278       .  A
O287       Cu289   2.010   1_565  S
O287        C290   1.279       .  A
Cu288      Cu289   2.372       .  S
C290        C592   1.484       .  S
C291        C556   1.476       .  S
C292        C568   1.467       .  S
C293        C580   1.478       .  S
C294        C649   1.472       .  S
C294        C295   1.400       .  A
C294        C299   1.404       .  A
C295        C296   1.398       .  A
C295        H300   1.084       .  S
C296        C430   1.473       .  S
C296        C297   1.400       .  A
C297        C298   1.407       .  A
C297        H301   1.084       .  S
C298        C544   1.491       .  S
C298        C299   1.410       .  A
C299        H302   1.082       .  S
C303        C604   1.473       .  S
C303        C304   1.400       .  A
C303        C308   1.405       .  A
C304        C305   1.399       .  A
C304        H309   1.084       .  S
C305        C450   1.474       .  S
C305        C306   1.399       .  A
C306        C307   1.406       .  A
C306        H310   1.084       .  S
C307        C529   1.490       .  S
C307        C308   1.410       .  A
C308        H311   1.083       .  S
C312        C517   1.491       .  S
C312        C313   1.410       .  A
C312        C317   1.407       .  A
C313        C314   1.404       .  A
C313        H318   1.082       .  S
C314        C553   1.471       .  S
C314        C315   1.399       .  A
C315        C316   1.397       .  A
C315        H319   1.084       .  S
C316        C421   1.472       .  S
C316        C317   1.399       .  A
C317        H320   1.084       .  S
O321       Cu329   2.003       .  S
O321        C331   1.276       .  A
O322       Cu329   2.003       .  S
O322        C332   1.278       .  A
O323       Cu329   2.012       .  S
O323        C333   1.278       .  A
O324       Cu329   2.006       .  S
O324        C334   1.277       .  A
O325       Cu330   2.011       .  S
O325        C334   1.277       .  A
O326       Cu330   2.007       .  S
O326        C333   1.276       .  A
O327       Cu330   2.013       .  S
O327        C332   1.279       .  A
O328       Cu330   2.012       .  S
O328        C331   1.277       .  A
Cu329      Cu330   2.376       .  S
C331        C520   1.465       .  S
C332        C505   1.484       .  S
C333        C532   1.467       .  S
C334        C541   1.466       .  S
C335        C493   1.483       .  S
C335        C336   1.408       .  A
C335        C340   1.404       .  A
C336        C337   1.409       .  A
C336        H341   1.083       .  S
C337        C940   1.486       .  S
C337        C338   1.404       .  A
C338        C339   1.397       .  A
C338        H342   1.083       .  S
C339        C405   1.472       .  S
C339        C340   1.397       .  A
C340        H343   1.084       .  S
C344        C481   1.480       .  S
C344        C345   1.406       .  A
C344        C349   1.403       .  A
C345        C346   1.405       .  A
C345        H350   1.084       .  S
C346        C904   1.474       .  S
C346        C347   1.401       .  A
C347        C348   1.400       .  A
C347        H351   1.084       .  S
C348        C394   1.474       .  S
C348        C349   1.400       .  A
C349        H352   1.084       .  S
C353        C508   1.480       .  S
C353        C354   1.403       .  A
C353        C358   1.407       .  A
C354        C355   1.398       .  A
C354        H359   1.084       .  S
C355        C387   1.472       .  S
C355        C356   1.398       .  A
C356        C357   1.404       .  A
C356        H360   1.084       .  S
C357        C469   1.483       .  S
C357        C358   1.407       .  A
C358        H361   1.083       .  S
C362       C1000   1.482       .  S
C362        C363   1.404       .  A
C362        C367   1.407       .  A
C363        C364   1.400       .  A
C363        H368   1.084       .  S
C364        C452   1.473       .  S
C364        C365   1.399       .  A
C365        C366   1.401       .  A
C365        H369   1.084       .  S
C366        C457   1.475   1_455  S
C366        C367   1.406       .  A
C367        H370   1.084   1_455  S
O371       Cu379   2.014       .  S
O371        C381   1.278       .  A
O372       Cu379   2.014   1_545  S
O372        C382   1.278       .  A
O373       Cu379   1.999       .  S
O373        C383   1.278       .  A
O374       Cu379   1.995   1_545  S
O374        C384   1.276       .  A
O375       Cu380   2.020       .  S
O375        C384   1.280       .  A
O376       Cu380   2.019   1_565  S
O376        C383   1.279       .  A
O377       Cu380   2.004       .  S
O377        C382   1.276       .  A
O378       Cu380   2.004   1_565  S
O378        C381   1.276       .  A
Cu379      Cu380   2.372   1_565  S
C381        C484   1.466       .  S
C382        C460   1.468       .  S
C383        C496   1.487       .  S
C384        C472   1.487       .  S
C385        C386   1.402       .  A
C385        C390   1.400       .  A
C386        C387   1.401       .  A
C386        H391   1.084       .  S
C387        C388   1.401       .  A
C388        C389   1.402       .  A
C388        H392   1.084       .  S
C389        C390   1.401       .  A
C390        H393   1.084       .  S
C394        C395   1.403       .  A
C394        C399   1.402       .  A
C395        C396   1.401       .  A
C395        H400   1.084       .  S
C396        C397   1.402       .  A
C397        C398   1.402       .  A
C397        H401   1.084       .  S
C398        C399   1.402       .  A
C399        H402   1.084       .  S
C403        C404   1.403       .  A
C403        C408   1.403       .  A
C404        C405   1.400       .  A
C404        H409   1.084       .  S
C405        C406   1.401       .  A
C406        C407   1.400       .  A
C406        H410   1.084       .  S
C407        C408   1.402       .  A
C408        H411   1.084       .  S
C412        C413   1.402       .  A
C412        C417   1.402       .  A
C413        C414   1.402       .  A
C413        H418   1.084       .  S
C414        C415   1.403       .  A
C415        C416   1.403       .  A
C415        H419   1.084       .  S
C416        C417   1.402       .  A
C417        H420   1.084       .  S
C421        C422   1.402       .  A
C421        C426   1.402       .  A
C422        C423   1.402       .  A
C422        H427   1.084       .  S
C423        C424   1.402       .  A
C424        C425   1.401       .  A
C424        H428   1.084       .  S
C425        C426   1.401       .  A
C426        H429   1.084       .  S
C430        C431   1.402       .  A
C430        C435   1.401       .  A
C431        C432   1.404       .  A
C431        H436   1.084       .  S
C432        C433   1.404       .  A
C433        C434   1.402       .  A
C433        H437   1.084       .  S
C434        C435   1.401       .  A
C435        H438   1.084       .  S
C439        C440   1.402       .  A
C439        C444   1.403       .  A
C440        C441   1.401       .  A
C440        H445   1.084       .  S
C441        C442   1.401       .  A
C442        C443   1.401       .  A
C442        H446   1.084       .  S
C443        C444   1.401       .  A
C444        H447   1.084       .  S
C448        C449   1.402       .  A
C448        C453   1.401       .  A
C449        C450   1.402       .  A
C449        H454   1.084       .  S
C450        C451   1.403       .  A
C451        C452   1.402       .  A
C451        H455   1.084       .  S
C452        C453   1.401       .  A
C453        H456   1.084       .  S
C457        C458   1.403   1_655  A
C457        C462   1.408       .  A
C458        C459   1.398   1_455  A
C458        H463   1.084       .  S
C459        C460   1.406       .  A
C459        O464   1.372   1_655  S
C460        C461   1.403       .  A
C461        C462   1.402       .  A
C461        H465   1.084       .  S
C462        O466   1.371       .  S
O464        H468   0.991       .  S
O466        H467   0.992       .  S
C469        C470   1.402       .  A
C469        C474   1.408       .  A
C470        C471   1.397       .  A
C470        H475   1.084       .  S
C471        C472   1.414       .  A
C471        O476   1.372       .  S
C472        C473   1.408       .  A
C473        C474   1.403       .  A
C473        H477   1.083       .  S
C474        O478   1.372       .  S
O476        H480   0.992       .  S
O478        H479   0.992       .  S
C481        C482   1.405       .  A
C481        C486   1.410       .  A
C482        C483   1.402       .  A
C482        H487   1.084       .  S
C483        C484   1.405       .  A
C483        O488   1.371       .  S
C484        C485   1.400       .  A
C485        C486   1.399       .  A
C485        H489   1.084       .  S
C486        O490   1.373       .  S
O488        H492   0.992       .  S
O490        H491   0.992       .  S
C493        C494   1.403       .  A
C493        C498   1.408       .  A
C494        C495   1.403       .  A
C494        H499   1.084       .  S
C495        C496   1.414   1_455  A
C495        O500   1.371   1_455  S
C496        C497   1.406   1_655  A
C497        C498   1.398       .  A
C497        H501   1.083       .  S
C498        O502   1.373       .  S
O500        H504   0.992       .  S
O502        H503   0.992       .  S
C505        C506   1.407       .  A
C505        C510   1.413       .  A
C506        C507   1.402       .  A
C506        H511   1.083       .  S
C507        C508   1.407       .  A
C507        O512   1.372       .  S
C508        C509   1.402       .  A
C509        C510   1.397       .  A
C509        H513   1.084       .  S
C510        O514   1.372       .  S
O512        H516   0.992       .  S
O514        H515   0.992       .  S
C517        C518   1.409       .  A
C517        C522   1.414       .  A
C518        C519   1.397       .  A
C518        H523   1.083       .  S
C519        C520   1.402       .  A
C519        O524   1.372       .  S
C520        C521   1.400       .  A
C521        C522   1.404       .  A
C521        H525   1.083       .  S
C522        O526   1.372       .  S
O524        H528   0.992       .  S
O526        H527   0.992       .  S
C529        C530   1.408       .  A
C529        C534   1.413       .  A
C530        C531   1.397       .  A
C530        H535   1.083       .  S
C531        C532   1.402       .  A
C531        O536   1.372       .  S
C532        C533   1.401       .  A
C533        C534   1.404       .  A
C533        H537   1.084       .  S
C534        O538   1.372       .  S
O536        H540   0.992       .  S
O538        H539   0.992       .  S
C541        C542   1.400       .  A
C541        C546   1.402       .  A
C542        C543   1.404       .  A
C542        H547   1.083       .  S
C543        C544   1.414       .  A
C543        O548   1.372       .  S
C544        C545   1.409       .  A
C545        C546   1.397       .  A
C545        H549   1.083       .  S
C546        O550   1.372       .  S
O548        H552   0.992       .  S
O550        H551   0.992       .  S
C553        C554   1.401       .  A
C553        C558   1.405       .  A
C554        C555   1.401       .  A
C554        H559   1.084       .  S
C555        C556   1.410   1_455  A
C555        O560   1.371   1_455  S
C556        C557   1.405   1_655  A
C557        C558   1.399       .  A
C557        H561   1.084       .  S
C558        O562   1.372       .  S
O560        H564   0.991       .  S
O562        H563   0.992       .  S
C565        C566   1.406       .  A
C565        C570   1.411   1_655  A
C566        C567   1.402       .  A
C566        H571   1.083       .  S
C567        C568   1.405       .  A
C567        O572   1.371       .  S
C568        C569   1.399       .  A
C569        C570   1.400   1_655  A
C569        H573   1.084   1_655  S
C570        O574   1.373       .  S
O572        H576   0.992       .  S
O574        H575   0.992       .  S
C577        C578   1.402       .  A
C577        C582   1.405       .  A
C578        C579   1.400       .  A
C578        H583   1.084       .  S
C579        C580   1.410       .  A
C579        O584   1.372       .  S
C580        C581   1.405       .  A
C581        C582   1.401       .  A
C581        H585   1.084       .  S
C582        O586   1.372       .  S
O584        H588   0.992       .  S
O586        H587   0.992       .  S
C589        C590   1.401       .  A
C589        C594   1.407       .  A
C590        C591   1.402       .  A
C590        H595   1.084       .  S
C591        C592   1.413       .  A
C591        O596   1.371       .  S
C592        C593   1.406       .  A
C593        C594   1.399       .  A
C593        H597   1.083       .  S
C594        O598   1.372       .  S
O596        H600   0.991       .  S
O598        H599   0.992       .  S
C601        C602   1.404       .  A
C601        C606   1.409       .  A
C602        C603   1.401       .  A
C602        H607   1.084       .  S
C603        C604   1.406       .  A
C603        O608   1.371       .  S
C604        C605   1.401       .  A
C605        C606   1.401       .  A
C605        H609   1.084       .  S
C606        O610   1.372       .  S
O608        H612   0.992       .  S
O610        H611   0.992       .  S
C613        C614   1.408       .  A
C613        C618   1.413       .  A
C614        C615   1.397       .  A
C614        H619   1.083       .  S
C615        C616   1.402       .  A
C615        O620   1.372       .  S
C616        C617   1.401       .  A
C617        C618   1.405       .  A
C617        H621   1.084       .  S
C618        O622   1.372       .  S
O620        H624   0.992       .  S
O622        H623   0.992       .  S
C625        C626   1.401       .  A
C625        C630   1.405       .  A
C626        C627   1.399       .  A
C626        H631   1.084       .  S
C627        C628   1.409       .  A
C627        O632   1.372       .  S
C628        C629   1.404       .  A
C629        C630   1.399       .  A
C629        H633   1.084       .  S
C630        O634   1.372       .  S
O632        H636   0.992   1_556  S
O634        H635   0.992       .  S
C637        C638   1.402       .  A
C637        C642   1.408       .  A
C638        C639   1.397       .  A
C638        H643   1.084       .  S
C639        C640   1.414       .  A
C639        O644   1.372       .  S
C640        C641   1.407       .  A
C641        C642   1.401       .  A
C641        H645   1.083       .  S
C642        O646   1.372       .  S
O644        H648   0.992       .  S
O646        H647   0.992       .  S
C649        C650   1.401       .  A
C649        C654   1.406       .  A
C650        C651   1.401       .  A
C650        H655   1.084       .  S
C651        C652   1.409       .  A
C651        O656   1.372       .  S
C652        C653   1.405       .  A
C653        C654   1.400       .  A
C653        H657   1.084       .  S
C654        O658   1.371       .  S
O656        H660   0.991       .  S
O658        H659   0.992       .  S
C661        C662   1.402       .  A
C661        C666   1.408       .  A
C662        C663   1.402       .  A
C662        H667   1.084       .  S
C663        C664   1.414       .  A
C663        O668   1.371       .  S
C664        C665   1.406       .  A
C665        C666   1.399       .  A
C665        H669   1.083       .  S
C666        O670   1.373       .  S
O668        H672   0.991       .  S
O670        H671   0.992       .  S
C673        C674   1.409       .  A
C673        C678   1.415       .  A
C674        C675   1.396       .  A
C674        H679   1.083       .  S
C675        C676   1.402       .  A
C675        O680   1.372       .  S
C676        C677   1.400       .  A
C677        C678   1.405       .  A
C677        H681   1.084       .  S
C678        O682   1.372       .  S
O680        H684   0.992       .  S
O682        H683   0.992       .  S
C685        C686   1.408       .  A
C685        C690   1.413       .  A
C686        C687   1.396       .  A
C686        H691   1.083       .  S
C687        C688   1.402       .  A
C687        O692   1.372       .  S
C688        C689   1.400       .  A
C689        C690   1.404       .  A
C689        H693   1.084       .  S
C690        O694   1.372       .  S
O692        H696   0.992       .  S
O694        H695   0.992       .  S
C697        C698   1.406       .  A
C697        C702   1.414       .  A
C698        C699   1.398       .  A
C698        H703   1.083       .  S
C699        C700   1.408       .  A
C699        O704   1.373       .  S
C700        C701   1.403       .  A
C701        C702   1.402       .  A
C701        H705   1.084       .  S
C702        O706   1.371       .  S
O704        H708   0.992       .  S
O706        H707   0.992       .  S
C709        C710   1.398       .  A
C709        C714   1.405       .  A
C710        C711   1.399       .  A
C710        H715   1.084       .  S
C711        C712   1.414       .  A
C711        O716   1.373       .  S
C712        C713   1.408       .  A
C713        C714   1.403       .  A
C713        H717   1.083       .  S
C714        O718   1.372       .  S
O716        H720   0.992       .  S
O718        H719   0.992       .  S
C721        C722   1.401       .  A
C721        C726   1.405       .  A
C722        C723   1.400       .  A
C722        H727   1.084       .  S
C723        C724   1.410       .  A
C723        O728   1.372       .  S
C724        C725   1.404       .  A
C725        C726   1.400       .  A
C725        H729   1.084       .  S
C726        O730   1.372       .  S
O728        H732   0.992       .  S
O730        H731   0.992       .  S
C733        C734   1.405       .  A
C733        C738   1.411       .  A
C734        C735   1.398       .  A
C734        H739   1.084       .  S
C735        C736   1.404       .  A
C735        O740   1.372       .  S
C736        C737   1.401       .  A
C737        C738   1.403       .  A
C737        H741   1.084       .  S
C738        O742   1.372       .  S
O740        H744   0.992       .  S
O742        H743   0.992       .  S
C745        C746   1.398       .  A
C745        C750   1.404   1_655  A
C746        C747   1.400   1_655  A
C746        H751   1.084       .  S
C747        C748   1.414       .  A
C747        O752   1.373       .  S
C748        C749   1.408       .  A
C749        C750   1.403       .  A
C749        H753   1.083       .  S
C750        O754   1.371       .  S
O752        H756   0.992       .  S
O754        H755   0.992   1_556  S
C757        C758   1.403       .  A
C757        C762   1.409       .  A
C758        C759   1.402       .  A
C758        H763   1.084       .  S
C759        C760   1.414       .  A
C759        O764   1.371       .  S
C760        C761   1.406       .  A
C761        C762   1.399       .  A
C761        H765   1.083       .  S
C762        O766   1.373       .  S
O764        H768   0.991       .  S
O766        H767   0.992       .  S
C769        C770   1.400       .  A
C769        C774   1.406       .  A
C770        C771   1.396       .  A
C770        H775   1.084       .  S
C771        C772   1.413       .  A
C771        O776   1.372       .  S
C772        C773   1.407       .  A
C773        C774   1.402       .  A
C773        H777   1.083       .  S
C774        O778   1.371       .  S
O776        H780   0.992       .  S
O778        H779   0.992       .  S
C781        C782   1.404       .  A
C781        C786   1.408       .  A
C782        C783   1.402       .  A
C782        H787   1.084       .  S
C783        C784   1.406       .  A
C783        O788   1.372       .  S
C784        C785   1.400       .  A
C785        C786   1.399       .  A
C785        H789   1.084       .  S
C786        O790   1.372       .  S
O788        H792   0.992   1_554  S
O790        H791   0.992       .  S
C793        C794   1.402       .  A
C793        C798   1.405       .  A
C794        C795   1.403       .  A
C794        H799   1.084       .  S
C795        C796   1.409       .  A
C795        O800   1.371       .  S
C796        C797   1.403       .  A
C797        C798   1.399       .  A
C797        H801   1.084       .  S
C798        O802   1.371       .  S
O800        H804   0.991       .  S
O802        H803   0.992       .  S
C805        C806   1.402       .  A
C805        C810   1.407       .  A
C806        C807   1.401       .  A
C806        H811   1.084       .  S
C807        C808   1.413       .  A
C807        O812   1.371       .  S
C808        C809   1.406       .  A
C809        C810   1.398       .  A
C809        H813   1.083       .  S
C810        O814   1.373       .  S
O812        H816   0.991       .  S
O814        H815   0.992       .  S
C817        C818   1.401       .  A
C817        C822   1.403       .  A
C818        C819   1.402       .  A
C818        H823   1.082       .  S
C819        C820   1.410       .  A
C819        O824   1.372       .  S
C820        C821   1.406   1_655  A
C821        C822   1.397   1_455  A
C821        H825   1.084       .  S
C822        O826   1.372   1_655  S
O824        H828   0.992       .  S
O826        H827   0.992       .  S
C829        C830   1.408   1_655  A
C829        C834   1.413   1_655  A
C830        C831   1.402       .  A
C830        H835   1.083   1_455  S
C831        C832   1.408       .  A
C831        O836   1.372       .  S
C832        C833   1.404       .  A
C833        C834   1.399       .  A
C833        H837   1.084       .  S
C834        O838   1.372       .  S
O836        H840   0.992       .  S
O838        H839   0.992   1_455  S
C841        C842   1.401       .  A
C841        C846   1.408       .  A
C842        C843   1.401       .  A
C842        H847   1.084       .  S
C843        C844   1.414       .  A
C843        O848   1.371       .  S
C844        C845   1.406       .  A
C845        C846   1.399       .  A
C845        H849   1.083       .  S
C846        O850   1.373       .  S
O848        H852   0.991       .  S
O850        H851   0.992       .  S
C853        C854   1.406       .  A
C853        C858   1.413       .  A
C854        C855   1.398       .  A
C854        H859   1.083       .  S
C855        C856   1.406       .  A
C855        O860   1.372       .  S
C856        C857   1.401       .  A
C857        C858   1.401       .  A
C857        H861   1.084       .  S
C858        O862   1.371       .  S
O860        H864   0.991       .  S
O862        H863   0.991       .  S
C865        C866   1.402       .  A
C865        C870   1.405       .  A
C866        C867   1.399       .  A
C866        H871   1.084       .  S
C867        C868   1.410       .  A
C867        O872   1.372       .  S
C868        C869   1.405       .  A
C869        C870   1.401       .  A
C869        H873   1.084       .  S
C870        O874   1.372       .  S
O872        H876   0.992       .  S
O874        H875   0.992       .  S
C877        C878   1.408       .  A
C877        C882   1.414       .  A
C878        C879   1.402       .  A
C878        H883   1.083       .  S
C879        C880   1.407       .  A
C879        O884   1.372       .  S
C880        C881   1.402       .  A
C881        C882   1.397       .  A
C881        H885   1.084       .  S
C882        O886   1.372       .  S
O884        H888   0.992       .  S
O886        H887   0.992       .  S
C889        C890   1.406       .  A
C889        C894   1.414       .  A
C890        C891   1.400       .  A
C890        H895   1.083       .  S
C891        C892   1.409       .  A
C891        O896   1.373       .  S
C892        C893   1.403       .  A
C893        C894   1.402       .  A
C893        H897   1.084       .  S
C894        O898   1.371       .  S
O896        H900   0.992       .  S
O898        H899   0.992       .  S
C901        C902   1.402       .  A
C901        C906   1.407       .  A
C902        C903   1.401       .  A
C902        H907   1.083       .  S
C903        C904   1.407       .  A
C903        O908   1.371       .  S
C904        C905   1.402       .  A
C905        C906   1.400       .  A
C905        H909   1.084       .  S
C906        O910   1.372       .  S
O908        H912   0.992       .  S
O910        H911   0.991       .  S
C913        C914   1.406       .  A
C913        C918   1.414       .  A
C914        C915   1.398       .  A
C914        H919   1.083       .  S
C915        C916   1.407       .  A
C915        O920   1.373       .  S
C916        C917   1.401       .  A
C917        C918   1.400       .  A
C917        H921   1.084       .  S
C918        O922   1.371       .  S
O920        H924   0.992       .  S
O922        H923   0.992       .  S
C925        C926   1.406       .  A
C925        C930   1.411       .  A
C926        C927   1.396       .  A
C926        H931   1.084       .  S
C927        C928   1.402       .  A
C927        O932   1.372       .  S
C928        C929   1.401       .  A
C929        C930   1.403       .  A
C929        H933   1.084       .  S
C930        O934   1.372       .  S
O932        H936   0.992       .  S
O934        H935   0.992       .  S
C937        C938   1.398       .  A
C937        C942   1.404       .  A
C938        C939   1.400       .  A
C938        H943   1.084       .  S
C939        C940   1.413       .  A
C939        O944   1.373       .  S
C940        C941   1.406       .  A
C941        C942   1.401       .  A
C941        H945   1.083       .  S
C942        O946   1.369       .  S
O944        H948   0.992       .  S
O946        H947   0.991       .  S
C949        C950   1.410       .  A
C949        C954   1.414       .  A
C950        C951   1.397       .  A
C950        H955   1.083       .  S
C951        C952   1.402       .  A
C951        O956   1.372       .  S
C952        C953   1.401       .  A
C953        C954   1.405       .  A
C953        H957   1.084       .  S
C954        O958   1.372       .  S
O956        H960   0.992       .  S
O958        H959   0.992       .  S
C961        C962   1.408       .  A
C961        C966   1.413       .  A
C962        C963   1.403       .  A
C962        H967   1.083       .  S
C963        C964   1.408       .  A
C963        O968   1.372       .  S
C964        C965   1.403       .  A
C965        C966   1.399       .  A
C965        H969   1.084       .  S
C966        O970   1.372       .  S
O968        H972   0.992       .  S
O970        H971   0.992       .  S
C973        C974   1.402       .  A
C973        C978   1.401       .  A
C974        C975   1.407       .  A
C974        H979   1.084       .  S
C975        C976   1.414       .  A
C975        O980   1.372       .  S
C976        C977   1.407       .  A
C977        C978   1.395       .  A
C977        H981   1.083       .  S
C978        O982   1.370       .  S
O980        H984   0.992       .  S
O982        H983   0.992       .  S
C985        C986   1.405       .  A
C985        C990   1.410       .  A
C986        C987   1.399       .  A
C986        H991   1.084       .  S
C987        C988   1.404       .  A
C987        O992   1.372       .  S
C988        C989   1.401       .  A
C989        C990   1.403       .  A
C989        H993   1.083       .  S
C990        O994   1.372       .  S
O992        H996   0.993       .  S
O994        H995   0.992       .  S
C997        C998   1.408   1_455  A
C997       C1002   1.413       .  A
C998        C999   1.402       .  A
C998       H1003   1.083       .  S
C999       C1000   1.407   1_655  A
C999       O1004   1.372       .  S
C1000      C1001   1.403       .  A
C1001      C1002   1.398       .  A
C1001      H1005   1.084       .  S
C1002      O1006   1.372       .  S
O1004      H1008   0.992       .  S
O1006      H1007   0.992       .  S
C1009      C1010   1.407       .  A
C1009      C1014   1.412       .  A
C1010      C1011   1.396       .  A
C1010      H1015   1.084       .  S
C1011      C1012   1.402       .  A
C1011      O1016   1.371       .  S
C1012      C1013   1.401       .  A
C1013      C1014   1.404       .  A
C1013      H1017   1.084       .  S
C1014      O1018   1.372       .  S
O1016      H1020   0.992       .  S
O1018      H1019   0.992   1_455  S
C1021      C1022   1.406   1_455  A
C1021      C1026   1.411       .  A
C1022      C1023   1.400   1_655  A
C1022      H1027   1.084       .  S
C1023      C1024   1.405       .  A
C1023      O1028   1.372   1_455  S
C1024      C1025   1.401       .  A
C1025      C1026   1.399       .  A
C1025      H1029   1.084       .  S
C1026      O1030   1.372       .  S
O1028      H1032   0.992       .  S
O1030      H1031   0.993       .  S
