geometry optimzed in LAMMPS
_audit_creation_date              2020-11-30 
_audit_creation_method            'lammps2cif' 
_symmetry_space_group_name_H-M    'P1' 
_symmetry_Int_Tables_number       1 
_symmetry_cell_setting            triclinic 
loop_ 
_symmetry_equiv_pos_as_xyz 
  x,y,z 
_cell_length_a                    30.20238932 
_cell_length_b                    30.325462706310198 
_cell_length_c                    48.37368969821866 
_cell_angle_alpha                 90.75945666356317 
_cell_angle_beta                  90.42184710251803 
_cell_angle_gamma                 119.98947399340834 
loop_ 
_atom_site_label 
_atom_site_type_symbol 
_atom_site_fract_x 
_atom_site_fract_y 
_atom_site_fract_z 
_atom_site_charge 
O1          O  0.45275421  0.07185543  0.29982042    -0.75200
O2          O  0.46771000  0.01625357  0.32287269    -0.54100
C3          C  0.45767719  0.05221638  0.32247768     0.78500
O4          O  0.34298192  0.89358314  0.19397925    -0.59800
O5          O  0.40909777  0.93984614  0.16542199    -0.52900
C6          C  0.36189106  0.91016999  0.17001812     0.70500
O7          O  0.35004687  0.90415342  0.28838110    -0.74400
O8          O  0.41669661  0.91551424  0.31518785    -0.55000
C9          C  0.37059066  0.90485009  0.31187476     0.76500
O10         O  0.45255924  0.09147052  0.20370676    -0.59500
O11         O  0.46028943  0.04035433  0.17159060    -0.52700
C12         C  0.45346962  0.07710100  0.17853953     0.73100
Zr13       Zr  0.45916428  0.05811379  0.24922633     2.54700
O14         O  0.37936358  0.05921178  0.25271463    -0.80100
O15         O  0.50794849  0.15044784  0.25495294    -0.93500
Zr16       Zr  0.37990909  0.90515189  0.24116097     2.64700
O17         O  0.29006022  0.88160129  0.24296818    -0.98500
O18         O  0.34291832  0.81315996  0.24291083    -0.80500
O19         O  0.42600479  0.97849196  0.26663193    -0.83900
O20         O  0.41455531  0.98519867  0.21948604    -2.18600
O21         O  0.61998775  0.06838887  0.19307702    -0.67300
O22         O  0.54923703  0.04939667  0.16834033    -0.51800
C23         C  0.59630894  0.06261116  0.16972008     0.71500
O24         O  0.53916782  0.88605918  0.28206964    -0.60200
O25         O  0.51119888  0.92133309  0.31415675    -0.52200
C26         C  0.53167962  0.89513924  0.30739393     0.73300
O27         O  0.52710464  0.89259216  0.18575504    -0.71600
O28         O  0.50485427  0.94241945  0.16132758    -0.50300
C29         C  0.52193227  0.91167397  0.16290820     0.74700
O30         O  0.62455257  0.07650703  0.29028781    -0.66900
O31         O  0.56006972  0.02422773  0.31857262    -0.54100
C32         C  0.60529783  0.06037740  0.31433371     0.73100
Zr33       Zr  0.59112404  0.05552151  0.24212209     2.77500
O34         O  0.67409283  0.06097043  0.24637710    -0.97700
O35         O  0.63417311  0.14776978  0.23836837    -0.78500
Zr36       Zr  0.51188348  0.90179822  0.23580249     2.70100
O37         O  0.58084575  0.88317328  0.22961104    -0.79700
O38         O  0.45445621  0.81003458  0.23443324    -0.98800
Zr39       Zr  0.48834133  0.97293546  0.28946104     2.21500
Zr40       Zr  0.48204033  0.98586646  0.19435577     2.11100
O41         O  0.55237932  0.98125401  0.21346996    -2.47500
O42         O  0.54905746  0.97620283  0.26117453    -0.79500
O43         O  0.52053805  0.05399905  0.22354905    -0.71700
O44         O  0.44461463  0.89500367  0.26411324    -2.32700
O45         O  0.52828672  0.05619388  0.27139756    -2.28900
O46         O  0.44689537  0.91063002  0.21633797    -0.73500
H47         H  0.38950887  0.98782975  0.20818791     0.78500
H48         H  0.43082533  0.86545587  0.27569376     0.79600
H49         H  0.57643792  0.98137931  0.20045099     0.81800
H50         H  0.54291636  0.08270999  0.28541458     0.79400
H51         H  0.33513133  0.80145690  0.22335936     0.42500
H52         H  0.44966531  0.80067282  0.21451210     0.41400
H53         H  0.61218492  0.91518191  0.23512300     0.41100
H54         H  0.67759505  0.04542393  0.22901981     0.39100
H55         H  0.64619337  0.16083030  0.25743229     0.42200
H56         H  0.53923343  0.16097350  0.24411545     0.37000
H57         H  0.38921544  0.09226889  0.26194196     0.43100
H58         H  0.28814629  0.90944956  0.23359728     0.39500
H59         H  0.69914025  0.09774196  0.24484396     0.44400
H60         H  0.52005993  0.15658100  0.27445244     0.43100
H61         H  0.27174690  0.85164896  0.23036126     0.43300
H62         H  0.47545117  0.79588015  0.24165158     0.43600
O63         O  0.08076996  0.65214170  0.28473936    -0.75200
O64         O  0.05815425  0.59152462  0.31724237    -0.54100
C65         C  0.07782614  0.63753626  0.31005392     0.78500
O66         O  0.88240031  0.54073097  0.21204480    -0.59800
O67         O  0.88464430  0.47647990  0.19254095    -0.52900
C68         C  0.88215919  0.51666368  0.18997945     0.70500
O69         O  0.90362375  0.53790491  0.30867888    -0.74400
O70         O  0.96662237  0.53134320  0.33057246    -0.55000
C71         C  0.92811234  0.53780419  0.33088812     0.76500
O72         O  0.06158718  0.61667331  0.18778418    -0.59500
O73         O  0.99706829  0.54697131  0.16596359    -0.52700
C74         C  0.03531593  0.59202791  0.16574799     0.73100
Zr75       Zr  0.05883123  0.60472048  0.23934961     2.54700
O76         O  0.05977883  0.68427470  0.23132900    -0.80100
O77         O  0.15135013  0.65142859  0.23458899    -0.93500
Zr78       Zr  0.90906490  0.52431216  0.25769017     2.64700
O79         O  0.90028027  0.59888135  0.26637526    -0.98500
O80         O  0.81650395  0.47037887  0.25891145    -0.80500
O81         O  0.99364062  0.56548236  0.26996435    -0.83900
O82         O  0.97377204  0.56011173  0.22280378    -2.18600
O83         O  0.08183022  0.47353274  0.19064904    -0.67300
O84         O  0.01733875  0.47551526  0.16692772    -0.51800
C85         C  0.05831600  0.47310548  0.16809887     0.71500
O86         O  0.91802566  0.37656450  0.30820074    -0.60200
O87         O  0.97697359  0.44922725  0.32978425    -0.52200
C88         C  0.94284209  0.40229428  0.33020744     0.73300
O89         O  0.87670404  0.34890255  0.21327660    -0.71600
O90         O  0.91368169  0.40650989  0.17910502    -0.50300
C91         C  0.88326297  0.36184514  0.18756259     0.74700
O92         O  0.08775647  0.45555171  0.28719750    -0.66900
O93         O  0.07887254  0.50986931  0.31570739    -0.54100
C94         C  0.09103553  0.47593668  0.31128917     0.73100
Zr95       Zr  0.06763214  0.47632352  0.24092705     2.77500
O96         O  0.07825259  0.40309597  0.23112476    -0.97700
O97         O  0.16037959  0.52901884  0.24107383    -0.78500
Zr98       Zr  0.91757692  0.39438693  0.25782579     2.70100
O99         O  0.92561452  0.31848352  0.25885532    -0.79700
O100        O  0.82710740  0.34369232  0.26842532    -0.98800
Zr101      Zr  0.00863920  0.51238024  0.29550828     2.21500
Zr102      Zr  0.96688629  0.48566197  0.20117624     2.11100
O103        O  0.98239241  0.42543316  0.22357813    -2.47500
O104        O  0.00110854  0.44541433  0.27081355    -0.79500
O105        O  0.04623880  0.53018971  0.21999331    -0.71700
O106        O  0.92058597  0.46381145  0.28316551    -2.32700
O107        O  0.07913302  0.55044572  0.26523745    -2.28900
O108        O  0.90922312  0.45630703  0.23567204    -0.73500
H109        H  0.97073330  0.58275751  0.21016358     0.78500
H110        H  0.89835673  0.45157567  0.29888696     0.79600
H111        H  0.97982000  0.39893461  0.21123808     0.81800
H112        H  0.11183260  0.56909920  0.27472123     0.79400
H113        H  0.80349916  0.49457875  0.25885810     0.42500
H114        H  0.81088797  0.36067776  0.25874577     0.41400
H115        H  0.96286467  0.33163456  0.26028372     0.41100
H116        H  0.09511616  0.39931581  0.24782361     0.39100
H117        H  0.16769823  0.55118365  0.22490632     0.42200
H118        H  0.16480451  0.66288361  0.25364780     0.37000
H119        H  0.02371973  0.67560926  0.23324394     0.43100
H120        H  0.93201322  0.62763258  0.25911047     0.39500
H121        H  0.04320896  0.37336023  0.23122523     0.44400
H122        H  0.15851627  0.68302446  0.22511201     0.43100
H123        H  0.87302497  0.59501360  0.25337220     0.43300
H124        H  0.81498592  0.31112828  0.25811796     0.43600
O125        O  0.52635423  0.63555976  0.29923759    -0.75200
O126        O  0.49464987  0.57125425  0.33009285    -0.54100
C127        C  0.51591663  0.61807140  0.32419379     0.78500
O128        O  0.37926004  0.43588476  0.19316982    -0.59800
O129        O  0.45539413  0.45697881  0.17384880    -0.52900
C130        C  0.40748852  0.44045173  0.17205305     0.70500
O131        O  0.34450940  0.43063497  0.28831557    -0.74400
O132        O  0.40413698  0.50059658  0.30806043    -0.55000
C133        C  0.36375777  0.45798383  0.31033460     0.76500
O134        O  0.53471318  0.62130589  0.20204324    -0.59500
O135        O  0.53766205  0.55746486  0.17830463    -0.52700
C136        C  0.54045811  0.60082914  0.17969150     0.73100
Zr137      Zr  0.51733038  0.59716308  0.25147456     2.54700
O138        O  0.46042097  0.63195949  0.24708938    -0.80100
O139        O  0.58838123  0.68465016  0.25090604    -0.93500
Zr140      Zr  0.39257852  0.45416387  0.24422648     2.64700
O141        O  0.34256693  0.49586626  0.23671474    -0.98500
O142        O  0.31449018  0.37323903  0.23578930    -0.80500
O143        O  0.44973382  0.52601984  0.26946530    -0.83900
O144        O  0.46224393  0.52479540  0.22266948    -2.18600
O145        O  0.64789980  0.57474705  0.22389849    -0.67300
O146        O  0.59824395  0.50517621  0.19970123    -0.51800
C147        C  0.63473825  0.55034532  0.20059975     0.71500
O148        O  0.47566118  0.37951170  0.31431073    -0.60200
O149        O  0.45229705  0.43300802  0.33431934    -0.52200
C150        C  0.46089233  0.39612872  0.33502676     0.73300
O151        O  0.46900667  0.35631175  0.21636593    -0.71600
O152        O  0.51515014  0.42207683  0.18806224    -0.50300
C153        C  0.48691275  0.37487515  0.19236127     0.74700
O154        O  0.61718356  0.54591416  0.31952388    -0.66900
O155        O  0.54223821  0.52101163  0.34109059    -0.54100
C156        C  0.59040703  0.53786770  0.34159537     0.73100
Zr157      Zr  0.60607858  0.53684675  0.26842944     2.77500
O158        O  0.65870761  0.49679529  0.26872132    -0.97700
O159        O  0.68687563  0.61324200  0.27994092    -0.78500
Zr160      Zr  0.48171676  0.39499923  0.26372061     2.70100
O161        O  0.53590470  0.35688646  0.26676203    -0.79700
O162        O  0.40893397  0.30933741  0.26876840    -0.98800
Zr163      Zr  0.48314374  0.50098197  0.30368889     2.21500
Zr164      Zr  0.51594467  0.49111465  0.21057325     2.11100
O165        O  0.55492725  0.46048865  0.24214799    -2.47500
O166        O  0.53270316  0.47141263  0.28594129    -0.79500
O167        O  0.56419727  0.56056567  0.23786260    -0.71700
O168        O  0.42625033  0.42363847  0.27952161    -2.32700
O169        O  0.55686513  0.57157352  0.28539064    -2.28900
O170        O  0.44932956  0.42826485  0.23289619    -0.73500
H171        H  0.45004029  0.53466399  0.20675519     0.78500
H172        H  0.40031552  0.39757724  0.29072496     0.79600
H173        H  0.57440422  0.44605749  0.23439616     0.81800
H174        H  0.57814315  0.59783027  0.29869945     0.79400
H175        H  0.32390003  0.34721655  0.24034206     0.42500
H176        H  0.41467846  0.29727515  0.28663094     0.41400
H177        H  0.51454864  0.32208854  0.25885527     0.41100
H178        H  0.67433718  0.50371470  0.25020993     0.39100
H179        H  0.67704554  0.63719159  0.28807821     0.42200
H180        H  0.60211669  0.69042972  0.23197720     0.37000
H181        H  0.44235043  0.61809820  0.22917125     0.43100
H182        H  0.36691690  0.52909909  0.22873459     0.39500
H183        H  0.68751873  0.51846405  0.28149125     0.44400
H184        H  0.61533087  0.68420210  0.26247569     0.43100
H185        H  0.31914272  0.47634243  0.22112801     0.43300
H186        H  0.37926465  0.31413646  0.27195453     0.43600
O187        O  0.79224104  0.43497494  0.02016976    -0.75200
O188        O  0.87636477  0.48691287  0.01126614    -0.54100
C189        C  0.83672915  0.44194335  0.01441614     0.78500
O190        O  0.72997507  0.60003214  0.45291050    -0.59800
O191        O  0.65694525  0.56009642  0.47498012    -0.52900
C192        C  0.68141400  0.57602203  0.45236740     0.70500
O193        O  0.82353002  0.51323385  0.45057780    -0.74400
O194        O  0.90281319  0.56240329  0.46600876    -0.55000
C195        C  0.87119772  0.53759219  0.44610861     0.76500
O196        O  0.64584372  0.43421153  0.52456275    -0.59500
O197        O  0.61580918  0.48885653  0.52002144    -0.52700
C198        C  0.60840648  0.44262882  0.52153339     0.73100
Zr199      Zr  0.74033153  0.47367465  0.02891010     2.54700
O200        O  0.69478098  0.38722723  0.50576822    -0.80100
O201        O  0.72985087  0.44470824  0.07637338    -0.93500
Zr202      Zr  0.77716856  0.55666486  0.46028994     2.64700
O203        O  0.71342231  0.49006065  0.42988075    -0.98500
O204        O  0.81797075  0.59853598  0.41763471    -0.80500
O205        O  0.79870547  0.51144858  0.49196384    -0.83900
O206        O  0.71294253  0.51168222  0.49324367    -2.18600
O207        O  0.75881716  0.63039764  0.09040838    -0.67300
O208        O  0.68305680  0.58486315  0.06809084    -0.51800
C209        C  0.71020104  0.60640583  0.09015517     0.71500
O210        O  0.94352884  0.71843050  0.50269591    -0.60200
O211        O  0.95844182  0.65226146  0.00729760    -0.52200
C212        C  0.97496096  0.70020348  0.00360544     0.73300
O213        O  0.78307920  0.71783701  0.50342377    -0.71600
O214        O  0.70255875  0.65230900  0.51283200    -0.50300
C215        C  0.73358342  0.69928839  0.50685423     0.74700
O216        O  0.90248347  0.62648434  0.07328158    -0.66900
O217        O  0.92193920  0.57141199  0.05598780    -0.54100
C218        C  0.91611845  0.59349995  0.07725194     0.73100
Zr219      Zr  0.81275547  0.60083872  0.07207679     2.77500
O220        O  0.85406399  0.66185005  0.11014482    -0.97700
O221        O  0.79065588  0.54210516  0.11017725    -0.78500
Zr222      Zr  0.84632041  0.68307113  0.50614027     2.70100
O223        O  0.88577752  0.75934778  0.03534436    -0.79700
O224        O  0.87011731  0.73341923  0.46444283    -0.98800
Zr225      Zr  0.87956766  0.57160310  0.01270077     2.21500
Zr226      Zr  0.70138491  0.57268687  0.51928442     2.11100
O227        O  0.78491681  0.64079253  0.03967412    -2.47500
O228        O  0.87289167  0.63915218  0.03638913    -0.79500
O229        O  0.73173584  0.53598207  0.05402508    -0.71700
O230        O  0.85542844  0.61819043  0.48162348    -2.32700
O231        O  0.81829582  0.53422378  0.04920064    -2.28900
O232        O  0.76805450  0.61775899  0.48640279    -0.73500
H233        H  0.68219754  0.48755691  0.48334019     0.78500
H234        H  0.88111439  0.63417192  0.46766620     0.79600
H235        H  0.78031818  0.66716978  0.04814834     0.81800
H236        H  0.82723744  0.51652454  0.06242782     0.79400
H237        H  0.82187882  0.63287570  0.41937677     0.42500
H238        H  0.89599894  0.76812105  0.47087237     0.41400
H239        H  0.87079001  0.74677991  0.05369244     0.41100
H240        H  0.85141606  0.69212247  0.10541407     0.39100
H241        H  0.75878532  0.53910601  0.11755804     0.42200
H242        H  0.74096806  0.41903433  0.07623430     0.37000
H243        H  0.69492044  0.39364313  0.48574126     0.43100
H244        H  0.72823602  0.49819911  0.41120204     0.39500
H245        H  0.83154265  0.64686968  0.12619554     0.44400
H246        H  0.69237117  0.42471244  0.07880519     0.43100
H247        H  0.71449116  0.45904953  0.43489877     0.43300
H248        H  0.88973964  0.72121911  0.45362724     0.43600
O249        O  0.64528459  0.20936833  0.99847174    -0.75200
O250        O  0.61524623  0.12437255  0.99614705    -0.54100
C251        C  0.60809705  0.16340160  0.99799320     0.78500
O252        O  0.88979098  0.27213278  0.44344761    -0.59800
O253        O  0.91421850  0.34514996  0.46520333    -0.52900
C254        C  0.91026514  0.32020167  0.44259393     0.70500
O255        O  0.72483066  0.16331377  0.42052464    -0.74400
O256        O  0.66683283  0.09767317  0.44651712    -0.55000
C257        C  0.68364532  0.12098290  0.42345142     0.76500
O258        O  0.78937273  0.35334774  0.51005217    -0.59500
O259        O  0.87522739  0.38514454  0.51307388    -0.52700
C260        C  0.83534221  0.39096248  0.51274394     0.73100
Zr261      Zr  0.73606473  0.26346370  0.00047479     2.54700
O262        O  0.70520328  0.29399722  0.46547359    -0.80100
O263        O  0.69771413  0.29047914  0.03622621    -0.93500
Zr264      Zr  0.79862713  0.22223406  0.44649533     2.64700
O265        O  0.79547244  0.28355714  0.41564789    -0.98500
O266        O  0.81534866  0.18563162  0.40560462    -0.80500
O267        O  0.72188089  0.19967871  0.46994397    -0.83900
O268        O  0.80946791  0.28849940  0.47736266    -2.18600
O269        O  0.81376300  0.28992270  0.06579923    -0.67300
O270        O  0.89658117  0.32958062  0.05940461    -0.51800
C271        C  0.85849588  0.31583167  0.07573424     0.71500
O272        O  0.78707263  0.06073771  0.49842246    -0.60200
O273        O  0.70635477  0.04758999  0.99471224    -0.52200
C274        C  0.73792502  0.03068307  0.99761079     0.73300
O275        O  0.94394920  0.22327390  0.49995310    -0.71600
O276        O  0.95712259  0.30356531  0.50903876    -0.50300
C277        C  0.97399532  0.27279805  0.50364602     0.74700
O278        O  0.72968165  0.11050010  0.05791797    -0.66900
O279        O  0.65591382  0.08377026  0.03696044    -0.54100
C280        C  0.68149871  0.08932025  0.05926016     0.73100
Zr281      Zr  0.78099109  0.20155404  0.05779188     2.77500
O282        O  0.83328955  0.19613881  0.09461495    -0.97700
O283        O  0.72839067  0.20004574  0.09612254    -0.78500
Zr284      Zr  0.84649554  0.15876022  0.50040620     2.70100
O285        O  0.87901118  0.13266334  0.04197275    -0.79700
O286        O  0.87801185  0.13339491  0.46057398    -0.98800
Zr287      Zr  0.70005315  0.12465839  0.99450238     2.21500
Zr288      Zr  0.87664120  0.30274209  0.50972156     2.11100
O289        O  0.85902188  0.22683710  0.03437540    -2.47500
O290        O  0.76948124  0.13838502  0.02508308    -0.79500
O291        O  0.79915478  0.27452155  0.03221340    -0.71700
O292        O  0.77691516  0.14632223  0.47005786    -2.32700
O293        O  0.71380623  0.19003870  0.02726685    -2.28900
O294        O  0.86410801  0.23506554  0.47810621    -0.73500
H295        H  0.81784329  0.31900391  0.46737142     0.78500
H296        H  0.77046607  0.11984695  0.45665282     0.79600
H297        H  0.88617240  0.23415811  0.04753371     0.81800
H298        H  0.68358750  0.18093136  0.03790603     0.79400
H299        H  0.83778931  0.17282031  0.41232453     0.42500
H300        H  0.84695003  0.10927835  0.44986696     0.41400
H301        H  0.85828478  0.09503358  0.04170694     0.41100
H302        H  0.81463243  0.19321944  0.11182370     0.39100
H303        H  0.75285682  0.22420641  0.11012631     0.42200
H304        H  0.72664820  0.31941957  0.04611009     0.37000
H305        H  0.72354507  0.33142385  0.46821427     0.43100
H306        H  0.78496345  0.26563210  0.39746680     0.39500
H307        H  0.83008336  0.16225202  0.09185724     0.44400
H308        H  0.68427086  0.26270768  0.04977553     0.43100
H309        H  0.76540974  0.28582431  0.42168041     0.43300
H310        H  0.89456525  0.16421044  0.44912707     0.43600
O311        O  0.36199704  0.79472589  0.98117622    -0.75200
O312        O  0.39311176  0.87886597  0.98985743    -0.54100
C313        C  0.39980751  0.84000386  0.98528890     0.78500
O314        O  0.11684326  0.74396535  0.42724963    -0.59800
O315        O  0.09343739  0.66729903  0.44273760    -0.52900
C316        C  0.09955964  0.69685919  0.42256957     0.70500
O317        O  0.26609914  0.88411608  0.42332700    -0.74400
O318        O  0.34001982  0.90393937  0.44454608    -0.55000
C319        C  0.31370376  0.90067327  0.42272399     0.76500
O320        O  0.21519648  0.64616033  0.48228061    -0.59500
O321        O  0.13027314  0.61473227  0.48836033    -0.52700
C322        C  0.16970058  0.60855253  0.48530326     0.73100
Zr323      Zr  0.27027667  0.74013781  0.98160621     2.54700
O324        O  0.29518017  0.70907941  0.44072679    -0.80100
O325        O  0.30790575  0.70336384  0.01155467    -0.93500
Zr326      Zr  0.20698511  0.79800961  0.43477890     2.64700
O327        O  0.23935944  0.76687123  0.39800093    -0.98500
O328        O  0.17999535  0.82216293  0.39273242    -0.80500
O329        O  0.28248682  0.80976382  0.45730389    -0.83900
O330        O  0.19589448  0.72310068  0.45651250    -2.18600
O331        O  0.14654968  0.71746515  0.06557590    -0.67300
O332        O  0.09049201  0.66175471  0.03341663    -0.51800
C333        C  0.10465766  0.67769146  0.05865551     0.71500
O334        O  0.22069006  0.93860930  0.50220585    -0.60200
O335        O  0.30344097  0.95605974  0.99554295    -0.52200
C336        C  0.27167151  0.97252041  0.99902264     0.73300
O337        O  0.06187139  0.77798535  0.50189155    -0.71600
O338        O  0.04863755  0.69753223  0.49375571    -0.50300
C339        C  0.03185245  0.72831211  0.49920311     0.74700
O340        O  0.26499774  0.87349440  0.05130580    -0.66900
O341        O  0.34469581  0.90992893  0.03813067    -0.54100
C342        C  0.31212476  0.89745088  0.05755811     0.73100
Zr343      Zr  0.22296601  0.78287221  0.04582037     2.77500
O344        O  0.21992430  0.79896121  0.09512692    -0.97700
O345        O  0.27606257  0.75217537  0.06645700    -0.78500
Zr346      Zr  0.15937795  0.84085502  0.49946540     2.70100
O347        O  0.13758884  0.87119159  0.04145501    -0.79700
O348        O  0.12373845  0.87487263  0.46631892    -0.98800
Zr349      Zr  0.30837841  0.87887224  0.99137728     2.21500
Zr350      Zr  0.12833386  0.69750334  0.48951471     2.11100
O351        O  0.14845830  0.76883175  0.02159806    -2.47500
O352        O  0.23601504  0.85485315  0.02113869    -0.79500
O353        O  0.20399384  0.71581120  0.01406974    -0.71700
O354        O  0.22861951  0.86337208  0.46875018    -2.32700
O355        O  0.29259398  0.80430302  0.01596106    -2.28900
O356        O  0.14002850  0.77348243  0.46694065    -0.73500
H357        H  0.18826150  0.69674365  0.44288307     0.78500
H358        H  0.23297064  0.89457604  0.46126559     0.79600
H359        H  0.12054505  0.76005432  0.03401584     0.81800
H360        H  0.32263862  0.81056033  0.02639370     0.79400
H361        H  0.16824765  0.79288206  0.37968940     0.42500
H362        H  0.10747747  0.84789482  0.45181728     0.41400
H363        H  0.14674394  0.85492936  0.05633611     0.41100
H364        H  0.18908069  0.80216076  0.09737103     0.39100
H365        H  0.25300849  0.71497115  0.06793451     0.42200
H366        H  0.33255979  0.73177364  0.02368778     0.37000
H367        H  0.32410729  0.74040035  0.43323990     0.43100
H368        H  0.24995980  0.74452465  0.40704168     0.39500
H369        H  0.21185379  0.76695384  0.10442201     0.44400
H370        H  0.32938082  0.69606627  0.99907969     0.43100
H371        H  0.20953959  0.74408678  0.38623933     0.43300
H372        H  0.09478908  0.87449651  0.47599586     0.43600
O373        O  0.62391242  0.86261024  0.41748984    -0.75200
O374        O  0.57976885  0.89629598  0.43708569    -0.54100
C375        C  0.59982143  0.88659916  0.41572563     0.78500
O376        O  0.43929978  0.64606979  0.49189263    -0.59800
O377        O  0.49247797  0.61426248  0.49771432    -0.52900
C378        C  0.44702059  0.60804617  0.49383383     0.70500
O379        O  0.44118659  0.79302879  0.98751097    -0.74400
O380        O  0.49688909  0.87793353  0.98594096    -0.55000
C381        C  0.45028036  0.83914901  0.98630386     0.76500
O382        O  0.62387417  0.72882342  0.43619727    -0.59500
O383        O  0.56685223  0.65707705  0.45465774    -0.52700
C384        C  0.59098262  0.68214648  0.43336235     0.73100
Zr385      Zr  0.58760531  0.78281160  0.43899524     2.54700
O386        O  0.50628454  0.73917030  0.41371323    -0.80100
O387        O  0.60572191  0.78292123  0.39001603    -0.93500
Zr388      Zr  0.47660236  0.73726487  0.99018860     2.64700
O389        O  0.41048321  0.70553771  0.45488749    -0.98500
O390        O  0.41174508  0.70631363  0.02571944    -0.80500
O391        O  0.52914656  0.80212342  0.46072099    -0.83900
O392        O  0.52792358  0.71603823  0.46680451    -2.18600
O393        O  0.72514136  0.77860860  0.50218398    -0.67300
O394        O  0.65550550  0.69801463  0.50295384    -0.51800
C395        C  0.70438228  0.72877153  0.50354218     0.71500
O396        O  0.62223749  0.88620534  0.05225812    -0.60200
O397        O  0.57537922  0.91382630  0.03220200    -0.52200
C398        C  0.59535415  0.90738225  0.05419624     0.73300
O399        O  0.58068765  0.73011131  0.07589362    -0.71600
O400        O  0.56882487  0.66437597  0.04733629    -0.50300
C401        C  0.57337670  0.68539409  0.07148190     0.74700
O402        O  0.72707822  0.94087654  0.49868675    -0.66900
O403        O  0.66106406  0.95451391  0.99152833    -0.54100
C404        C  0.70896877  0.97152265  0.99658624     0.73100
Zr405      Zr  0.69142950  0.84216483  0.49865522     2.77500
O406        O  0.74802999  0.87504488  0.04173802    -0.97700
O407        O  0.75419700  0.86942010  0.46212215    -0.78500
Zr408      Zr  0.57659377  0.79501972  0.05064344     2.70100
O409        O  0.60825493  0.82114128  0.09788698    -0.79700
O410        O  0.49862939  0.77590925  0.07481179    -0.98800
Zr411      Zr  0.58067848  0.87610871  0.98824024     2.21500
Zr412      Zr  0.57548976  0.69835277  0.50022587     2.11100
O413        O  0.63231691  0.77270024  0.02815953    -2.47500
O414        O  0.63208767  0.86013820  0.02099955    -0.79500
O415        O  0.63656756  0.76681049  0.47182698    -0.71700
O416        O  0.52528977  0.80942028  0.01869857    -2.32700
O417        O  0.64001406  0.85716443  0.46655884    -2.28900
O418        O  0.52300056  0.72077354  0.02409408    -0.73500
H419        H  0.50613059  0.68664553  0.45538968     0.78500
H420        H  0.50325442  0.81855143  0.02854421     0.79600
H421        H  0.65130680  0.76506455  0.04154040     0.81800
H422        H  0.66573276  0.88659513  0.45714285     0.79400
H423        H  0.41690298  0.68125678  0.03608549     0.42500
H424        H  0.47953101  0.73830368  0.07586215     0.41400
H425        H  0.64345598  0.82668193  0.09770476     0.41100
H426        H  0.72600857  0.87738003  0.05606854     0.39100
H427        H  0.73393257  0.85170097  0.44526117     0.42200
H428        H  0.57691846  0.75197192  0.38149585     0.37000
H429        H  0.50285277  0.76677549  0.40511369     0.43100
H430        H  0.41353438  0.67782363  0.44571021     0.39500
H431        H  0.75296025  0.84664153  0.04765304     0.44400
H432        H  0.63530449  0.77746625  0.38917545     0.43100
H433        H  0.37748160  0.68792687  0.46456234     0.43300
H434        H  0.50964379  0.78758862  0.09413883     0.43600
O435        O  0.21634744  0.56815645  0.98121588    -0.75200
O436        O  0.13171810  0.51590974  0.98873940    -0.54100
C437        C  0.17091513  0.56088084  0.98447121     0.78500
O438        O  0.26260312  0.37022681  0.43018946    -0.59800
O439        O  0.33988332  0.42248923  0.44664532    -0.52900
C440        C  0.30989939  0.39998115  0.42584055     0.70500
O441        O  0.12356734  0.38664995  0.42103960    -0.74400
O442        O  0.10728502  0.44132142  0.44411496    -0.55000
C443        C  0.11045405  0.42033592  0.42133408     0.76500
O444        O  0.36011663  0.56569093  0.48602065    -0.59500
O445        O  0.38971716  0.51154731  0.49442292    -0.52700
C446        C  0.39688782  0.55739846  0.49112553     0.73100
Zr447      Zr  0.27059302  0.53049486  0.98360479     2.54700
O448        O  0.29763724  0.58368963  0.44475911    -0.80100
O449        O  0.30484322  0.59994000  0.01782184    -0.93500
Zr450      Zr  0.20692497  0.40510926  0.43573362     2.64700
O451        O  0.24557136  0.46156543  0.39678520    -0.98500
O452        O  0.17110706  0.34472645  0.39703369    -0.80500
O453        O  0.19662567  0.46855559  0.45946888    -0.83900
O454        O  0.28264272  0.46895220  0.45878098    -2.18600
O455        O  0.29385876  0.43658775  0.06864863    -0.67300
O456        O  0.34378806  0.42540818  0.03740033    -0.51800
C457        C  0.33025790  0.42862694  0.06232910     0.71500
O458        O  0.06230267  0.28211571  0.50198108    -0.60200
O459        O  0.05031458  0.35158116  0.99558098    -0.52200
C460        C  0.03358453  0.30388677  0.00049296     0.73300
O461        O  0.21959135  0.27762938  0.50204829    -0.71600
O462        O  0.30101321  0.34376465  0.49566379    -0.50300
C463        C  0.26920740  0.29624562  0.49998966     0.74700
O464        O  0.16775716  0.46290108  0.06733912    -0.66900
O465        O  0.10422688  0.44930760  0.03645170    -0.54100
C466        C  0.12623104  0.46148881  0.06070350     0.73100
Zr467      Zr  0.22520617  0.44097330  0.04705578     2.77500
O468        O  0.18342905  0.37495550  0.08127292    -0.97700
O469        O  0.26788040  0.50930390  0.08147179    -0.78500
Zr470      Zr  0.15944483  0.31529389  0.49894378     2.70100
O471        O  0.13653335  0.26965214  0.04233698    -0.79700
O472        O  0.12860719  0.25360376  0.46065856    -0.98800
Zr473      Zr  0.13059452  0.43175019  0.99100647     2.21500
Zr474      Zr  0.30624353  0.42585719  0.49217742     2.11100
O475        O  0.23726324  0.37996809  0.02308878    -2.47500
O476        O  0.14967404  0.38248012  0.02289087    -0.79500
O477        O  0.29323940  0.48845333  0.01689071    -0.71700
O478        O  0.13941098  0.36362444  0.46806878    -2.32700
O479        O  0.20630119  0.48899418  0.01599080    -2.28900
O480        O  0.22897309  0.36180878  0.46838795    -0.73500
H481        H  0.30953787  0.48730328  0.44579141     0.78500
H482        H  0.10746682  0.33905523  0.45934825     0.79600
H483        H  0.24598124  0.36134389  0.03595271     0.81800
H484        H  0.20228152  0.51465189  0.02575708     0.79400
H485        H  0.15715715  0.31091571  0.40554457     0.42500
H486        H  0.11313412  0.22008315  0.46963155     0.41400
H487        H  0.12273771  0.23385490  0.03609753     0.41100
H488        H  0.19674505  0.39276616  0.09931370     0.39100
H489        H  0.25792961  0.49220500  0.09951363     0.47000
H490        H  0.31797487  0.58795834  0.03307534     0.37000
H491        H  0.32465534  0.57880469  0.43628073     0.43100
H492        H  0.23392889  0.43911735  0.38011183     0.39500
H493        H  0.14714370  0.36617337  0.08074248     0.44400
H494        H  0.27485537  0.60023426  0.02572381     0.43100
H495        H  0.28268695  0.47415225  0.39822425     0.43300
H496        H  0.09918912  0.25510732  0.45258452     0.43600
O497        O  0.46810853  0.17097340  0.43461156    -0.75200
O498        O  0.43158771  0.09512234  0.45550221    -0.54100
C499        C  0.45018504  0.12298246  0.43397899     0.78500
O500        O  0.56593366  0.35444255  0.51714628    -0.59800
O501        O  0.51134954  0.38514706  0.51632181    -0.52900
C502        C  0.55758099  0.39199213  0.51824110     0.70500
O503        O  0.56546428  0.20838185  0.00541044    -0.74400
O504        O  0.51171011  0.12383136  0.99951327    -0.55000
C505        C  0.55651147  0.16197119  0.50129329     0.76500
O506        O  0.43519917  0.29161948  0.43594047    -0.59500
O507        O  0.43300424  0.34514516  0.46880222    -0.52700
C508        C  0.43613918  0.33228989  0.44365024     0.73100
Zr509      Zr  0.42592582  0.21444038  0.45194723     2.54700
O510        O  0.45833044  0.23858679  0.40530222    -0.80100
O511        O  0.34538312  0.16541026  0.42631379    -0.93500
Zr512      Zr  0.52933932  0.26355925  0.51172993     2.64700
O513        O  0.59895044  0.30796398  0.47963365    -0.98500
O514        O  0.59522382  0.28519822  0.04882243    -0.80500
O515        O  0.48199362  0.19860687  0.47867123    -0.83900
O516        O  0.47988478  0.28367123  0.48226972    -2.18600
O517        O  0.27850218  0.21706470  0.50067584    -0.67300
O518        O  0.34570167  0.29781891  0.50941254    -0.51800
C519        C  0.29793221  0.26666373  0.50391376     0.71500
O520        O  0.37981173  0.11395467  0.06216536    -0.60200
O521        O  0.43361145  0.09122675  0.04712576    -0.52200
C522        C  0.41124024  0.09892623  0.06745102     0.73300
O523        O  0.38913414  0.26400615  0.07807859    -0.71600
O524        O  0.44337469  0.33737570  0.05919245    -0.50300
C525        C  0.42326555  0.31027084  0.08071281     0.74700
O526        O  0.27824518  0.05680743  0.50172477    -0.66900
O527        O  0.34918797  0.04860552  0.00160428    -0.54100
C528        C  0.30060582  0.03128835  0.00043196     0.73100
Zr529      Zr  0.31329208  0.15414256  0.50300065     2.77500
O530        O  0.25008996  0.12627908  0.03452076    -0.97700
O531        O  0.25277722  0.12624570  0.46425264    -0.78500
Zr532      Zr  0.41280653  0.20388843  0.06250815     2.70100
O533        O  0.36268063  0.17569517  0.10437821    -0.79700
O534        O  0.47866719  0.23210146  0.09859762    -0.98800
Zr535      Zr  0.42854047  0.12353372  0.50329775     2.21500
Zr536      Zr  0.42698636  0.30050247  0.51182071     2.11100
O537        O  0.36595323  0.22722122  0.03209445    -2.47500
O538        O  0.36772652  0.13866530  0.02875087    -0.79500
O539        O  0.37289002  0.23077504  0.48042232    -0.71700
O540        O  0.47422494  0.19389232  0.03667253    -2.32700
O541        O  0.37113365  0.13952457  0.47549802    -2.28900
O542        O  0.47582991  0.27812163  0.04053966    -0.73500
H543        H  0.50300643  0.31346344  0.47210310     0.78500
H544        H  0.49439061  0.18676955  0.04942359     0.79600
H545        H  0.34009546  0.23223369  0.04079627     0.81800
H546        H  0.35219705  0.11138444  0.46267257     0.79400
H547        H  0.57508680  0.27441826  0.06596143     0.42500
H548        H  0.46320561  0.23810273  0.11516991     0.41400
H549        H  0.32677268  0.16043828  0.09781000     0.41100
H550        H  0.22160624  0.09500274  0.02594302     0.39100
H551        H  0.24469217  0.09097400  0.45993275     0.42200
H552        H  0.35155491  0.14477824  0.41253091     0.37000
H553        H  0.42820589  0.23074488  0.39354062     0.43100
H554        H  0.62131943  0.29317334  0.48231554     0.39500
H555        H  0.26367281  0.11382330  0.04931248     0.44400
H556        H  0.34185077  0.19083189  0.41532851     0.43100
H557        H  0.58307188  0.29536849  0.46111290     0.43300
H558        H  0.48166502  0.20204499  0.10307158     0.43600
C559        C  0.50815594  0.36317356  0.14519236    -0.05700
C560        C  0.47173935  0.34410916  0.16633898     0.00200
C561        C  0.41978688  0.31206677  0.15899307    -0.08400
C562        C  0.40561589  0.30505727  0.13076798    -0.05700
C563        C  0.44161359  0.32818390  0.10958899     0.00200
C564        C  0.49415856  0.35733582  0.11703078    -0.08300
C565        C  0.53562665  0.38268652  0.09573020     0.62100
H566        H  0.54798968  0.38694392  0.15121228     0.12800
H567        H  0.36574433  0.28100611  0.12496010     0.12800
C568        C  0.37958650  0.28545783  0.18080465     0.62300
F569        F  0.58361734  0.41174741  0.10787227    -0.22800
F570        F  0.52581084  0.41439446  0.07979339    -0.20200
F571        F  0.53700531  0.34619761  0.07905469    -0.19800
F572        F  0.37657164  0.32078208  0.19781104    -0.19900
F573        F  0.39256459  0.25582433  0.19660624    -0.20200
F574        F  0.33165409  0.25401360  0.16913564    -0.22900
C575        C  0.39976502  0.34363942  0.40217912    -0.05700
C576        C  0.44255357  0.36416241  0.42012770     0.00200
C577        C  0.49222843  0.39257404  0.40912009    -0.08400
C578        C  0.49735206  0.39904573  0.38044479    -0.05700
C579        C  0.45484366  0.37508855  0.36254562     0.00200
C580        C  0.40549620  0.34569341  0.37337672    -0.08300
C581        C  0.36034515  0.31240414  0.35439123     0.62100
H582        H  0.36235996  0.31923419  0.41075952     0.12800
H583        H  0.53493313  0.42222225  0.37176337     0.12800
C584        C  0.53977001  0.40672862  0.42639843     0.62300
F585        F  0.31528980  0.28613535  0.36878884    -0.22800
F586        F  0.36958774  0.27727230  0.34100922    -0.20200
F587        F  0.35375899  0.34133792  0.33481360    -0.19800
F588        F  0.54944233  0.36673557  0.42564922    -0.19900
F589        F  0.53351902  0.41683488  0.45357894    -0.20200
F590        F  0.58175371  0.44932271  0.41620352    -0.22900
C591        C  0.71854735  0.62784478  0.14059849    -0.05700
C592        C  0.68631297  0.60026614  0.11774374     0.00200
C593        C  0.63567709  0.56180267  0.12285838    -0.08400
C594        C  0.62149336  0.54850765  0.15024473    -0.05700
C595        C  0.65479960  0.57300549  0.17309576     0.00200
C596        C  0.70348066  0.61529643  0.16825097    -0.08300
C597        C  0.73972288  0.64617726  0.19176861     0.62100
H598        H  0.75667806  0.65876501  0.13669132     0.12800
H599        H  0.58355113  0.51705677  0.15383115     0.12800
C600        C  0.59679086  0.53289333  0.09989953     0.62300
F601        F  0.78562804  0.68519256  0.18224850    -0.22800
F602        F  0.75024347  0.61510197  0.20789859    -0.20200
F603        F  0.71755726  0.66780058  0.20778899    -0.19800
F604        F  0.61151208  0.50341309  0.08489649    -0.19900
F605        F  0.59288192  0.56689741  0.08267879    -0.20200
F606        F  0.54873225  0.50071687  0.11012479    -0.22900
C607        C  0.68504288  0.56764227  0.40183743    -0.05700
C608        C  0.65588124  0.56606881  0.42473211     0.00200
C609        C  0.60552013  0.55614355  0.42028377    -0.08400
C610        C  0.58628615  0.54808582  0.39287642    -0.05700
C611        C  0.61531038  0.54854552  0.36977214     0.00200
C612        C  0.66593986  0.55833023  0.37461368    -0.08300
C613        C  0.70060935  0.55922904  0.35168713     0.62100
H614        H  0.72377580  0.57598893  0.40543862     0.12800
H615        H  0.54779042  0.54081727  0.38950840     0.12800
C616        C  0.57253843  0.55421676  0.44428350     0.62300
F617        F  0.74665488  0.56596490  0.36178697    -0.22800
F618        F  0.71179998  0.59916328  0.33431053    -0.20200
F619        F  0.67692876  0.51353913  0.33699533    -0.19800
F620        F  0.59947146  0.59648711  0.46132138    -0.19900
F621        F  0.55874660  0.51126574  0.45952966    -0.20200
F622        F  0.52842668  0.55312209  0.43550115    -0.22900
C623        C  0.59894896  0.65183494  0.14251030    -0.05700
C624        C  0.54912862  0.62650108  0.15288747     0.00200
C625        C  0.50750055  0.61729268  0.13536129    -0.08400
C626        C  0.51690650  0.63178847  0.10755159    -0.05700
C627        C  0.56662682  0.65736851  0.09716572     0.00200
C628        C  0.60856851  0.66969837  0.11519453    -0.08300
C629        C  0.66306139  0.70346597  0.10574880     0.62100
H630        H  0.63030859  0.65825080  0.15614066     0.12800
H631        H  0.48562310  0.62604593  0.09402734     0.12800
C632        C  0.45364937  0.59407913  0.14636172     0.62300
F633        F  0.69846542  0.70875354  0.12570982    -0.22800
F634        F  0.67124988  0.75155867  0.10022898    -0.20200
F635        F  0.67138000  0.68296376  0.08199107    -0.19800
F636        F  0.45271617  0.62467775  0.16752168    -0.19900
F637        F  0.43818937  0.54641468  0.15647097    -0.20200
F638        F  0.41876371  0.58924336  0.12611077    -0.22900
C639        C  0.52109708  0.64798222  0.39868791    -0.05700
C640        C  0.57235854  0.66317507  0.40479777     0.00200
C641        C  0.60654982  0.67348774  0.38261453    -0.08400
C642        C  0.58806619  0.66819051  0.35519922    -0.05700
C643        C  0.53628914  0.65092207  0.34914611     0.00200
C644        C  0.50291227  0.64322906  0.37128387    -0.08300
C645        C  0.44840917  0.63118855  0.36564716     0.62100
H646        H  0.49552208  0.64166867  0.41558479     0.12800
H647        H  0.61328524  0.67264923  0.33829354     0.12800
C648        C  0.66234618  0.68874407  0.38694038     0.62300
F649        F  0.42351861  0.62997682  0.38979343    -0.22800
F650        F  0.42053496  0.58448830  0.35233314    -0.20200
F651        F  0.44919857  0.66835190  0.34904237    -0.19800
F652        F  0.67220986  0.67797179  0.41320962    -0.19900
F653        F  0.69295676  0.74026256  0.38257042    -0.20200
F654        F  0.67571326  0.66261920  0.36828235    -0.22900
C655        C  0.42145129  0.45953993  0.12198428    -0.05700
C656        C  0.38686449  0.43017866  0.14293129     0.00200
C657        C  0.33604922  0.39365936  0.13500324    -0.08400
C658        C  0.32219229  0.38851401  0.10679644    -0.05700
C659        C  0.35527906  0.42177540  0.08680400     0.00200
C660        C  0.40584876  0.45751952  0.09431578    -0.08300
C661        C  0.44157615  0.49561110  0.07357640     0.62100
H662        H  0.46042316  0.48727165  0.12773924     0.12800
H663        H  0.28313513  0.36188128  0.10042246     0.12800
C664        C  0.29555028  0.36199157  0.15581095     0.62300
F665        F  0.48877099  0.52890572  0.08520232    -0.22800
F666        F  0.42095560  0.52420026  0.06367039    -0.20200
F667        F  0.44864818  0.46999526  0.05174016    -0.19800
F668        F  0.28556504  0.39335901  0.17239841    -0.19900
F669        F  0.31207221  0.33592824  0.17199325    -0.20200
F670        F  0.25003030  0.32645587  0.14309589    -0.22900
C671        C  0.29120387  0.38364334  0.37497852    -0.05700
C672        C  0.32688169  0.41230659  0.39635604     0.00200
C673        C  0.37392853  0.45502429  0.38876530    -0.08400
C674        C  0.38294007  0.46672160  0.36064332    -0.05700
C675        C  0.34684791  0.43971172  0.33932143     0.00200
C676        C  0.29950919  0.39728526  0.34677270    -0.08300
C677        C  0.25738449  0.36712816  0.32553528     0.62100
H678        H  0.25564829  0.35059066  0.38058032     0.12800
H679        H  0.41956852  0.49810261  0.35513066     0.12800
C680        C  0.41481061  0.48977162  0.40970488     0.62300
F681        F  0.21273111  0.33104875  0.33775641    -0.22800
F682        F  0.27257732  0.34198476  0.30728062    -0.20200
F683        F  0.24645542  0.39972099  0.31113055    -0.19800
F684        F  0.43052679  0.46197596  0.42521943    -0.19900
F685        F  0.39601617  0.51323867  0.42680959    -0.20200
F686        F  0.45743511  0.52794923  0.39705466    -0.22900
C687        C  0.91458847  0.60634936  0.12810985    -0.05700
C688        C  0.91457660  0.57520463  0.10617704     0.00200
C689        C  0.90553649  0.52579043  0.11252270    -0.08400
C690        C  0.89241183  0.50845524  0.13967481    -0.05700
C691        C  0.88970383  0.53848177  0.16143373     0.00200
C692        C  0.90108287  0.58881337  0.15540384    -0.08300
C693        C  0.89749243  0.62373614  0.17699017     0.62100
H694        H  0.92452723  0.64496090  0.12351996     0.12800
H695        H  0.88431240  0.47029428  0.14407064     0.12800
C696        C  0.90892454  0.49027720  0.09131088     0.62300
F697        F  0.90547827  0.66887386  0.16578460    -0.22800
F698        F  0.93381333  0.63608834  0.19764289    -0.20200
F699        F  0.84928517  0.59973295  0.18829441    -0.19800
F700        F  0.95344570  0.51550312  0.07705911    -0.19900
F701        F  0.86842769  0.47208944  0.07293720    -0.20200
F702        F  0.90891304  0.44916303  0.10337110    -0.22900
C703        C  0.84952250  0.52100502  0.39576939    -0.05700
C704        C  0.88761621  0.53858304  0.41681959     0.00200
C705        C  0.93884487  0.55766526  0.40900999    -0.08400
C706        C  0.95026396  0.56092352  0.38062691    -0.05700
C707        C  0.91212359  0.54294935  0.35952267     0.00200
C708        C  0.86057707  0.52226719  0.36741868    -0.08300
C709        C  0.81701000  0.50013070  0.34633405     0.62100
H710        H  0.81018843  0.50584488  0.40163178     0.12800
H711        H  0.98976109  0.57667536  0.37468963     0.12800
C712        C  0.98143391  0.57376860  0.43028336     0.62300
F713        F  0.76971274  0.47918701  0.35870103    -0.22800
F714        F  0.81815057  0.46197226  0.33092679    -0.20200
F715        F  0.82164727  0.53814194  0.32907230    -0.19800
F716        F  0.96824620  0.53674069  0.44994115    -0.19900
F717        F  0.99101754  0.61883694  0.44303991    -0.20200
F718        F  0.02560758  0.58073506  0.41819856    -0.22900
C719        C  0.82693132  0.34028752  0.14811118    -0.05700
C720        C  0.85570213  0.32579110  0.16455207     0.00200
C721        C  0.87877641  0.30051788  0.15162947    -0.08400
C722        C  0.88301238  0.30192075  0.12247544    -0.05700
C723        C  0.86169423  0.32476345  0.10607110     0.00200
C724        C  0.82997381  0.34104801  0.11913177    -0.08300
C725        C  0.79788026  0.35876206  0.10350956     0.62100
H726        H  0.80712539  0.35744260  0.15822548     0.12800
H727        H  0.90203007  0.28417698  0.11228269     0.12800
C728        C  0.89960062  0.27338324  0.16894250     0.62300
F729        F  0.79928878  0.39984902  0.11715733    -0.22800
F730        F  0.74777703  0.31940042  0.10217059    -0.20200
F731        F  0.81464877  0.37384886  0.07698116    -0.19800
F732        F  0.91973187  0.25001719  0.15264657    -0.19900
F733        F  0.86037484  0.23638394  0.18417992    -0.20200
F734        F  0.93757822  0.30718574  0.18693825    -0.22900
C735        C  0.95518293  0.41291020  0.38166738    -0.05700
C736        C  0.93356737  0.37907710  0.35852433     0.00200
C737        C  0.90679199  0.32613980  0.36355729    -0.08400
C738        C  0.90322261  0.30983719  0.39106333    -0.05700
C739        C  0.92287205  0.34351480  0.41424687     0.00200
C740        C  0.95070050  0.39627340  0.40919135    -0.08300
C741        C  0.97636497  0.43515205  0.43244625     0.62100
H742        H  0.97552727  0.45348163  0.37825752     0.12800
H743        H  0.88362642  0.26962383  0.39457633     0.12800
C744        C  0.88148634  0.28642738  0.34044779     0.62300
F745        F  0.00810935  0.48340582  0.42253646    -0.22800
F746        F  0.00604022  0.42224670  0.44852474    -0.20200
F747        F  0.93958636  0.43671571  0.44859413    -0.19800
F748        F  0.91753344  0.29128023  0.32146355    -0.19900
F749        F  0.84401320  0.29255915  0.32746307    -0.20200
F750        F  0.85836270  0.23721950  0.35015579    -0.22900
C751        C  0.06361765  0.42652799  0.09629939    -0.05700
C752        C  0.10247192  0.47069458  0.08460893     0.00200
C753        C  0.12997981  0.51553528  0.10146599    -0.08400
C754        C  0.11621893  0.51455319  0.12923211    -0.05700
C755        C  0.07834831  0.46978294  0.14095311     0.00200
C756        C  0.05295162  0.42487023  0.12453037    -0.08300
C757        C  0.01599035  0.37511532  0.13735862     0.62100
H758        H  0.04516340  0.39188819  0.08374585     0.12800
H759        H  0.13515627  0.54907475  0.14187264     0.12800
C760        C  0.17527622  0.56458156  0.09160018     0.62300
F761        F  0.04006428  0.36490082  0.15869472    -0.22800
F762        F  0.97603121  0.37936158  0.14764658    -0.20200
F763        F  0.99718144  0.33488330  0.11847620    -0.19800
F764        F  0.18227850  0.56418184  0.06341209    -0.19900
F765        F  0.21915473  0.57220719  0.10505523    -0.20200
F766        F  0.16816656  0.60522216  0.09799756    -0.22900
C767        C  0.13586039  0.49687775  0.35609202    -0.05700
C768        C  0.10495050  0.45868767  0.33669736     0.00200
C769        C  0.07617795  0.40779912  0.34548109    -0.08400
C770        C  0.07482268  0.39794873  0.37395588    -0.05700
C771        C  0.10377211  0.43670077  0.39363774     0.00200
C772        C  0.13690207  0.48668098  0.38427597    -0.08300
C773        C  0.17464513  0.52892366  0.40350790     0.62100
H774        H  0.15811838  0.53556729  0.34893492     0.12800
H775        H  0.05268984  0.35921180  0.38104981     0.12800
C776        C  0.04878748  0.36399774  0.32486091     0.62300
F777        F  0.20514824  0.57344754  0.38963625    -0.22800
F778        F  0.20693049  0.51493956  0.41547120    -0.20200
F779        F  0.14874046  0.53862781  0.42390117    -0.19800
F780        F  0.08436893  0.36277873  0.30751315    -0.19900
F781        F  0.01382757  0.36998548  0.30925144    -0.20200
F782        F  0.02288754  0.31754574  0.33779741    -0.22900
C783        C  0.04530406  0.58190486  0.11517730    -0.05700
C784        C  0.04927076  0.61446989  0.13759672     0.00200
C785        C  0.06249408  0.66520917  0.13198016    -0.08400
C786        C  0.07262772  0.68178988  0.10453373    -0.05700
C787        C  0.07342593  0.65076540  0.08279340     0.00200
C788        C  0.05822676  0.59963378  0.08786612    -0.08300
C789        C  0.05800135  0.56515616  0.06463805     0.62100
H790        H  0.03387108  0.54267919  0.11936991     0.12800
H791        H  0.08455217  0.72108563  0.10013143     0.12800
C792        C  0.06775098  0.70243813  0.15476875     0.62300
F793        F  0.04093711  0.51620444  0.07351094    -0.22800
F794        F  0.10656946  0.58408356  0.05437992    -0.20200
F795        F  0.02619649  0.56274029  0.04322929    -0.19800
F796        F  0.10847458  0.71207538  0.17198843    -0.19900
F797        F  0.02345742  0.68232433  0.16987198    -0.20200
F798        F  0.07667324  0.74847027  0.14440260    -0.22900
C799        C  0.12768358  0.66298138  0.35199635    -0.05700
C800        C  0.09621255  0.67222137  0.33443246     0.00200
C801        C  0.06494272  0.68961248  0.34639504    -0.08400
C802        C  0.06619974  0.69644556  0.37545979    -0.05700
C803        C  0.09209274  0.67971847  0.39305596     0.00200
C804        C  0.12025623  0.65887824  0.38066578    -0.08300
C805        C  0.13987950  0.62768864  0.39499015     0.62100
H806        H  0.15023635  0.64790812  0.34279975     0.12800
H807        H  0.04518397  0.71296616  0.38477386     0.12800
C808        C  0.02911220  0.69882010  0.32849537     0.62300
F809        F  0.19254976  0.65256810  0.39379178    -0.22800
F810        F  0.11994347  0.58151357  0.38093925    -0.20200
F811        F  0.12574839  0.61667510  0.42204736    -0.19800
F812        F  0.99307342  0.65372510  0.31579651    -0.19900
F813        F  0.05682541  0.73363129  0.30844771    -0.20200
F814        F  0.00351158  0.71772919  0.34381262    -0.22900
C815        C  0.32040813  0.93220480  0.13351123    -0.05700
C816        C  0.32968463  0.89534765  0.14503253     0.00200
C817        C  0.32875902  0.85732006  0.12777331    -0.08400
C818        C  0.33181518  0.86453767  0.09901203    -0.05700
C819        C  0.32488964  0.90280946  0.08724301     0.00200
C820        C  0.31316220  0.93325674  0.10481626    -0.08300
C821        C  0.29170737  0.96522169  0.09336894     0.62100
H822        H  0.31980975  0.96055207  0.14707283     0.12800
H823        H  0.33530833  0.83788529  0.08547810     0.12800
C824        C  0.32153353  0.80852562  0.14019704     0.62300
F825        F  0.28492475  0.99326939  0.11395663    -0.22800
F826        F  0.24447784  0.93396739  0.08101937    -0.20200
F827        F  0.32426595  0.99805938  0.07391346    -0.19800
F828        F  0.27504298  0.78458958  0.15340401    -0.19900
F829        F  0.35961971  0.81857821  0.15942861    -0.20200
F830        F  0.32137871  0.77543226  0.12020357    -0.22900
C831        C  0.34094906  0.93904856  0.34843947    -0.05700
C832        C  0.34310659  0.89709781  0.33760785     0.00200
C833        C  0.33764311  0.85811198  0.35521867    -0.08400
C834        C  0.33742017  0.86573666  0.38389241    -0.05700
C835        C  0.33448998  0.90727896  0.39487128     0.00200
C836        C  0.33323747  0.94294006  0.37675816    -0.08300
C837        C  0.32159395  0.98334121  0.38724047     0.62100
H838        H  0.34567339  0.96881599  0.33456748     0.12800
H839        H  0.33396989  0.83647584  0.39776971     0.12800
C840        C  0.32431806  0.80600412  0.34352891     0.62300
F841        F  0.35218896  0.00856914  0.40999293    -0.22800
F842        F  0.27096993  0.96074321  0.39480124    -0.20200
F843        F  0.32958362  0.01858439  0.36723059    -0.19800
F844        F  0.35404724  0.80966203  0.32115071    -0.19900
F845        F  0.27370878  0.78099608  0.33484645    -0.20200
F846        F  0.33055992  0.77675352  0.36321183    -0.22900
C847        C  0.52596557  0.88785827  0.08642170    -0.05700
C848        C  0.57855054  0.91228392  0.08207979     0.00200
C849        C  0.61289183  0.93286618  0.10500402    -0.08400
C850        C  0.59288467  0.92789768  0.13180437    -0.05700
C851        C  0.53996922  0.90259052  0.13618388     0.00200
C852        C  0.50613783  0.88188535  0.11309344    -0.08300
C853        C  0.44903875  0.85332364  0.11674682     0.62100
H854        H  0.50029902  0.87186235  0.06871671     0.12800
H855        H  0.61846082  0.94540229  0.14942796     0.12800
C856        C  0.67036574  0.96139401  0.10106869     0.62300
F857        F  0.42282380  0.82970125  0.09246068    -0.22800
F858        F  0.43376374  0.88710974  0.12525159    -0.20200
F859        F  0.43659646  0.81630701  0.13634488    -0.19800
F860        F  0.68296166  0.99371629  0.07895405    -0.19900
F861        F  0.68719073  0.92732018  0.09597089    -0.20200
F862        F  0.69604013  0.99042166  0.12427813    -0.22900
C863        C  0.53470542  0.87224527  0.38158928    -0.05700
C864        C  0.58689334  0.89294093  0.38699129     0.00200
C865        C  0.62013821  0.90230314  0.36403276    -0.08400
C866        C  0.60027828  0.89721701  0.33683364    -0.05700
C867        C  0.54800143  0.87768972  0.33187481     0.00200
C868        C  0.51471806  0.85989325  0.35465791    -0.08300
C869        C  0.45751962  0.82749535  0.35135387     0.62100
H870        H  0.50836084  0.86026021  0.39869689     0.12800
H871        H  0.62569110  0.90955901  0.31936982     0.12800
C872        C  0.67492995  0.91323264  0.36706361     0.62300
F873        F  0.44020792  0.78471814  0.36746717    -0.22800
F874        F  0.44299400  0.81124071  0.32425230    -0.20200
F875        F  0.43533601  0.85534058  0.36016592    -0.19800
F876        F  0.67530463  0.86796336  0.36546165    -0.19900
F877        F  0.69734861  0.93747010  0.39191022    -0.20200
F878        F  0.70477514  0.94366453  0.34592647    -0.22900
C879        C  0.58762122  0.04363935  0.11909932    -0.05700
C880        C  0.62091577  0.06722780  0.14219957     0.00200
C881        C  0.67420403  0.09163786  0.13786919    -0.08400
C882        C  0.69158760  0.09500525  0.11059344    -0.05700
C883        C  0.65815053  0.07644947  0.08731191     0.00200
C884        C  0.60504158  0.04841493  0.09180896    -0.08300
C885        C  0.56660384  0.02390124  0.06813773     0.62100
H886        H  0.54682287  0.02216216  0.12229774     0.12800
H887        H  0.73227730  0.11386935  0.10728847     0.12800
C888        C  0.71283420  0.11388865  0.16156804     0.62300
F889        F  0.51765804  0.99175800  0.07741585    -0.22800
F890        F  0.58003174  0.99541316  0.05162591    -0.20200
F891        F  0.56592925  0.06104465  0.05221074    -0.19800
F892        F  0.70701919  0.07513098  0.17856532    -0.19900
F893        F  0.70570979  0.14900376  0.17650641    -0.20200
F894        F  0.76268504  0.13845431  0.15244201    -0.22900
C895        C  0.65647449  0.05873192  0.35308856    -0.05700
C896        C  0.63477503  0.08426468  0.33976667     0.00200
C897        C  0.62687777  0.11996005  0.35495964    -0.08400
C898        C  0.63613390  0.12491009  0.38361236    -0.05700
C899        C  0.65737856  0.09895159  0.39704075     0.00200
C900        C  0.67051764  0.06772089  0.38126489    -0.08300
C901        C  0.70005723  0.04464121  0.39398599     0.62100
H902        H  0.66114555  0.03063544  0.34138007     0.12800
H903        H  0.63047047  0.15244568  0.39530032     0.12800
C904        C  0.61056699  0.15491938  0.34190443     0.62300
F905        F  0.71638166  0.02373250  0.37383300    -0.22800
F906        F  0.66925385  0.00748448  0.41229605    -0.20200
F907        F  0.74329347  0.08112943  0.40787520    -0.19800
F908        F  0.56296440  0.14316074  0.35126555    -0.19900
F909        F  0.60899859  0.15189525  0.31339955    -0.20200
F910        F  0.64502820  0.20482035  0.34951531    -0.22900
C911        C  0.48574987  0.11467936  0.13453845    -0.05700
C912        C  0.44781852  0.10268409  0.15430837     0.00200
C913        C  0.39939984  0.09386305  0.14570245    -0.08400
C914        C  0.38949847  0.09351094  0.11718326    -0.05700
C915        C  0.42531793  0.09847959  0.09705349     0.00200
C916        C  0.47431689  0.10844329  0.10609420    -0.08300
C917        C  0.51259143  0.10693602  0.08667713     0.62100
H918        H  0.52257459  0.12110759  0.14183046     0.12800
H919        H  0.35239243  0.08668898  0.11037078     0.12800
C920        C  0.35815918  0.08302627  0.16658063     0.62300
F921        F  0.55497528  0.11199660  0.10064658    -0.22800
F922        F  0.53026169  0.14566129  0.06805275    -0.20200
F923        F  0.48893843  0.06058245  0.07277197    -0.19800
F924        F  0.37626369  0.12255806  0.18584236    -0.19900
F925        F  0.34494160  0.03823451  0.18000607    -0.20200
F926        F  0.31450031  0.07834720  0.15419586    -0.22900
C927        C  0.43269111  0.11822652  0.38389833    -0.05700
C928        C  0.44983451  0.10110738  0.40630563     0.00200
C929        C  0.46929716  0.06832135  0.40112459    -0.08400
C930        C  0.47091295  0.05394956  0.37356846    -0.05700
C931        C  0.45367229  0.07097196  0.35076602     0.00200
C932        C  0.43399093  0.10385201  0.35624009    -0.08300
C933        C  0.41316756  0.12294686  0.33354218     0.62100
H934        H  0.41782676  0.14328695  0.38834423     0.12800
H935        H  0.48650420  0.02919183  0.36985778     0.12800
C936        C  0.48868684  0.04896537  0.42439737     0.62300
F937        F  0.39269187  0.15149300  0.34404339    -0.22800
F938        F  0.37475745  0.08201021  0.31890952    -0.20200
F939        F  0.45195917  0.15354446  0.31589337    -0.19800
F940        F  0.44806283  0.01632513  0.44048803    -0.19900
F941        F  0.52410544  0.08934804  0.44062882    -0.20200
F942        F  0.51209682  0.02271388  0.41453782    -0.22900
O943        O  0.45653384  0.07522930  0.79942839    -0.75200
O944        O  0.47614243  0.02321897  0.82272417    -0.54100
C945        C  0.46317468  0.05712011  0.82224811     0.78500
O946        O  0.35304888  0.89221947  0.69436942    -0.59800
O947        O  0.41819975  0.94025430  0.66556451    -0.52900
C948        C  0.37140025  0.90867507  0.67027938     0.70500
O949        O  0.35929023  0.90374856  0.78902823    -0.74400
O950        O  0.42734110  0.92157689  0.81649782    -0.55000
C951        C  0.38020720  0.90711041  0.81285299     0.76500
O952        O  0.45999844  0.09421840  0.70327036    -0.59500
O953        O  0.46720663  0.04315797  0.67081318    -0.52700
C954        C  0.46101690  0.08015090  0.67807302     0.73100
Zr955      Zr  0.46295441  0.05975978  0.74892947     2.54700
O956        O  0.37758681  0.04925335  0.75002743    -0.80100
O957        O  0.49949354  0.15133971  0.75562435    -0.93500
Zr958      Zr  0.39037832  0.90682998  0.74164327     2.64700
O959        O  0.29896877  0.87709863  0.74279946    -0.98500
O960        O  0.35885528  0.81578117  0.74427659    -0.80500
O961        O  0.43260846  0.98095855  0.76693464    -0.83900
O962        O  0.42174693  0.98622113  0.71930630    -2.18600
O963        O  0.62979074  0.07700186  0.69317348    -0.67300
O964        O  0.55836907  0.05999394  0.67043666    -0.51800
C965        C  0.60475945  0.07062350  0.67031488     0.71500
O966        O  0.55093218  0.89465668  0.78261235    -0.60200
O967        O  0.52639838  0.93362901  0.81442994    -0.52200
C968        C  0.54521030  0.90589101  0.80782037     0.73300
O969        O  0.54246613  0.90292685  0.68563261    -0.71600
O970        O  0.51846223  0.95131514  0.66110325    -0.50300
C971        C  0.53680677  0.92162672  0.66269380     0.74700
O972        O  0.63271418  0.08628369  0.78988097    -0.66900
O973        O  0.56825207  0.03372479  0.81812558    -0.54100
C974        C  0.61324867  0.07005991  0.81386856     0.73100
Zr975      Zr  0.59913261  0.06481620  0.74183439     2.77500
O976        O  0.68480763  0.07647367  0.74537372    -0.97700
O977        O  0.63638791  0.15629895  0.73666265    -0.78500
Zr978      Zr  0.52614283  0.91117833  0.73592447     2.70100
O979        O  0.60169068  0.90208215  0.73363650    -0.79700
O980        O  0.47570983  0.81886545  0.73116969    -0.98800
Zr981      Zr  0.49745935  0.97986072  0.78954003     2.21500
Zr982      Zr  0.49110383  0.99077765  0.69410815     2.11100
O983        O  0.56346344  0.99013810  0.71340087    -2.47500
O984        O  0.55922414  0.98567541  0.76108898    -0.79500
O985        O  0.52633485  0.05889606  0.72344332    -0.71700
O986        O  0.45772869  0.90129611  0.76456815    -2.32700
O987        O  0.53464066  0.06273771  0.77103375    -2.28900
O988        O  0.45892702  0.91626368  0.71672425    -0.73500
H989        H  0.39608207  0.98728885  0.70776607     0.78500
H990        H  0.44534868  0.87217310  0.77638641     0.79600
H991        H  0.58814600  0.99102489  0.70059050     0.81800
H992        H  0.54844099  0.08963139  0.78488014     0.79400
H993        H  0.33844243  0.80540264  0.76134498     0.42500
H994        H  0.46726141  0.80681444  0.75037221     0.41400
H995        H  0.62721861  0.93278177  0.72394280     0.41100
H996        H  0.68386631  0.04983330  0.73292190     0.39100
H997        H  0.66595006  0.17143467  0.74971814     0.42200
H998        H  0.52062690  0.16673139  0.73915423     0.37000
H999        H  0.35420101  0.01280179  0.74547079     0.43100
H1000       H  0.29399484  0.90088499  0.73111106     0.39500
H1001       H  0.70674081  0.10881594  0.73582456     0.44400
H1002       H  0.52468300  0.16061903  0.77095521     0.43100
H1003       H  0.28237732  0.84435684  0.73228297     0.43300
H1004       H  0.44284007  0.81208790  0.72280713     0.43600
O1005       O  0.07276446  0.65125927  0.78489577    -0.75200
O1006       O  0.04521177  0.59036309  0.81754571    -0.54100
C1007       C  0.06750873  0.63651599  0.81024811     0.78500
O1008       O  0.87219806  0.53950060  0.71263788    -0.59800
O1009       O  0.87531188  0.47566161  0.69341448    -0.52900
C1010       C  0.87237190  0.51559426  0.69066698     0.70500
O1011       O  0.89352451  0.53748469  0.80809372    -0.74400
O1012       O  0.95374260  0.52660808  0.83019022    -0.55000
C1013       C  0.91691727  0.53564136  0.83026579     0.76500
O1014       O  0.05356602  0.61610666  0.68824499    -0.59500
O1015       O  0.98891288  0.54670318  0.66620310    -0.52700
C1016       C  0.02766451  0.59153684  0.66612056     0.73100
Zr1017     Zr  0.04906078  0.60367572  0.73972636     2.54700
O1018       O  0.04721837  0.68200482  0.73215846    -0.80100
O1019       O  0.14163494  0.65266988  0.73472469    -0.93500
Zr1020     Zr  0.89882235  0.52153333  0.75767471     2.64700
O1021       O  0.88262323  0.59164158  0.76581074    -0.98500
O1022       O  0.80709066  0.46269202  0.75886377    -0.80500
O1023       O  0.98344173  0.56355574  0.77013300    -0.83900
O1024       O  0.96402951  0.55857273  0.72301197    -2.18600
O1025       O  0.07352582  0.47373969  0.69062518    -0.67300
O1026       O  0.00736949  0.47226048  0.66681985    -0.51800
C1027       C  0.04910513  0.47114391  0.66801334     0.71500
O1028       O  0.91336105  0.37347755  0.80839449    -0.60200
O1029       O  0.96823008  0.44773547  0.83006812    -0.52200
C1030       C  0.93725375  0.39997278  0.83047315     0.73300
O1031       O  0.86935490  0.34693296  0.71346901    -0.71600
O1032       O  0.90318189  0.40542429  0.67942187    -0.50300
C1033       C  0.87429775  0.36031548  0.68782750     0.74700
O1034       O  0.08472161  0.46012777  0.78683886    -0.66900
O1035       O  0.06624765  0.50547385  0.81754102    -0.54100
C1036       C  0.08487573  0.47713472  0.81150705     0.73100
Zr1037     Zr  0.05902568  0.47621821  0.74090272     2.77500
O1038       O  0.06667705  0.40131411  0.73096806    -0.97700
O1039       O  0.15183847  0.52773334  0.73975023    -0.78500
Zr1040     Zr  0.90887723  0.39257296  0.75819609     2.70100
O1041       O  0.90852742  0.31216514  0.75906204    -0.79700
O1042       O  0.81804644  0.34713870  0.76855227    -0.98800
Zr1043     Zr  0.99853019  0.51049339  0.79571088     2.21500
Zr1044     Zr  0.95790256  0.48457830  0.70114503     2.11100
O1045       O  0.97372093  0.42462790  0.72380459    -2.47500
O1046       O  0.99248649  0.44425748  0.77087109    -0.79500
O1047       O  0.03733104  0.52977039  0.71996845    -0.71700
O1048       O  0.91062345  0.46136944  0.78344865    -2.32700
O1049       O  0.06929732  0.54937959  0.76576368    -2.28900
O1050       O  0.90044685  0.45428922  0.73573896    -0.73500
H1051       H  0.96087588  0.58121037  0.71040996     0.78500
H1052       H  0.88845752  0.44897734  0.79918795     0.79600
H1053       H  0.97132784  0.39828264  0.71139797     0.81800
H1054       H  0.10153487  0.56763895  0.77571154     0.79400
H1055       H  0.79910583  0.45859641  0.77879828     0.42500
H1056       H  0.81553599  0.36146044  0.78659974     0.41400
H1057       H  0.94457128  0.32191979  0.76282162     0.41100
H1058       H  0.08436733  0.39771522  0.74734664     0.39100
H1059       H  0.16403033  0.50461087  0.74600773     0.42200
H1060       H  0.15563027  0.63790642  0.74791067     0.37000
H1061       H  0.08351226  0.70932292  0.73317023     0.43100
H1062       H  0.90643050  0.61883954  0.75347494     0.39500
H1063       H  0.03136158  0.37217818  0.73185285     0.44400
H1064       H  0.15172902  0.68664881  0.74279662     0.43100
H1065       H  0.84831151  0.57976508  0.75751759     0.43300
H1066       H  0.80247611  0.35988459  0.75506817     0.43600
O1067       O  0.53418929  0.63980569  0.79960847    -0.75200
O1068       O  0.49856903  0.57475128  0.82994461    -0.54100
C1069       C  0.52195886  0.62179909  0.82435373     0.78500
O1070       O  0.38386151  0.44591417  0.69272225    -0.59800
O1071       O  0.46006162  0.46877255  0.67278964    -0.52900
C1072       C  0.41218487  0.45241316  0.67129832     0.70500
O1073       O  0.35044806  0.43861006  0.78893588    -0.74400
O1074       O  0.41108501  0.50779047  0.80902647    -0.55000
C1075       C  0.37002693  0.46579752  0.81100983     0.76500
O1076       O  0.53795598  0.62566075  0.70276623    -0.59500
O1077       O  0.54357148  0.56343892  0.67893301    -0.52700
C1078       C  0.54445414  0.60595427  0.68037533     0.73100
Zr1079     Zr  0.52373940  0.60124510  0.75198049     2.54700
O1080       O  0.46899550  0.63875369  0.74876564    -0.80100
O1081       O  0.59789118  0.68530784  0.74592000    -0.93500
Zr1082     Zr  0.39663771  0.45985501  0.74426258     2.64700
O1083       O  0.34591176  0.50123956  0.73855599    -0.98500
O1084       O  0.31917173  0.37871000  0.73505820    -0.80500
O1085       O  0.45537634  0.53054150  0.76954741    -0.83900
O1086       O  0.46696636  0.53003627  0.72318617    -2.18600
O1087       O  0.65090313  0.57309942  0.72346074    -0.67300
O1088       O  0.59902055  0.50375453  0.69986892    -0.51800
C1089       C  0.63615012  0.54842090  0.70028637     0.71500
O1090       O  0.47523944  0.38063436  0.81367023    -0.60200
O1091       O  0.45358223  0.43528811  0.83382107    -0.52200
C1092       C  0.46118166  0.39775817  0.83448369     0.73300
O1093       O  0.47366891  0.35883455  0.71610240    -0.71600
O1094       O  0.50740407  0.42347619  0.68562769    -0.50300
C1095       C  0.48619519  0.37663140  0.69141667     0.74700
O1096       O  0.62180502  0.54744216  0.81947012    -0.66900
O1097       O  0.54689997  0.52318490  0.84093525    -0.54100
C1098       C  0.59498707  0.53960693  0.84154277     0.73100
Zr1099     Zr  0.60950124  0.53703388  0.76832980     2.77500
O1100       O  0.65741970  0.49207482  0.77052347    -0.97700
O1101       O  0.69325040  0.61118119  0.77762923    -0.78500
Zr1102     Zr  0.48326181  0.39748927  0.76319605     2.70100
O1103       O  0.53782801  0.36002745  0.76802728    -0.79700
O1104       O  0.41057281  0.31188106  0.76779566    -0.98800
Zr1105     Zr  0.48764462  0.50431293  0.80371968     2.21500
Zr1106     Zr  0.51871900  0.49483739  0.71029656     2.11100
O1107       O  0.55655576  0.46187306  0.74135367    -2.47500
O1108       O  0.53552927  0.47290582  0.78588272    -0.79500
O1109       O  0.56858175  0.56270568  0.73812778    -0.71700
O1110       O  0.42919189  0.42766633  0.77922628    -2.32700
O1111       O  0.56247929  0.57414900  0.78567307    -2.28900
O1112       O  0.45176772  0.43213993  0.73257179    -0.73500
H1113       H  0.45495066  0.54076414  0.70758550     0.78500
H1114       H  0.40276244  0.40152283  0.79019251     0.79600
H1115       H  0.57466828  0.44586304  0.73372506     0.81800
H1116       H  0.58410361  0.60006795  0.79905873     0.79400
H1117       H  0.32041865  0.35538344  0.74876733     0.42500
H1118       H  0.38107012  0.31387824  0.76027519     0.41400
H1119       H  0.54975327  0.36685026  0.78755365     0.41100
H1120       H  0.63188960  0.45665372  0.77515052     0.39100
H1121       H  0.71770303  0.59896483  0.77438710     0.42200
H1122       H  0.62494729  0.68548274  0.75767980     0.37000
H1123       H  0.45586406  0.63681993  0.76765974     0.43100
H1124       H  0.36933316  0.53402557  0.72981757     0.39500
H1125       H  0.66666868  0.49003058  0.75114092     0.44400
H1126       H  0.58905540  0.70883708  0.75554932     0.43100
H1127       H  0.32073712  0.48093103  0.72377080     0.43300
H1128       H  0.41626355  0.29071872  0.75411450     0.43600
O1129       O  0.79115560  0.43399562  0.52087402    -0.75200
O1130       O  0.87551407  0.48620845  0.51256026    -0.54100
C1131       C  0.83599887  0.44115509  0.51585499     0.78500
O1132       O  0.73311169  0.60244902  0.95381485    -0.59800
O1133       O  0.66009868  0.56312228  0.97569769    -0.52900
C1134       C  0.68464550  0.57897370  0.95305298     0.70500
O1135       O  0.82197390  0.51112986  0.95202691    -0.74400
O1136       O  0.90206918  0.56188570  0.96529509    -0.55000
C1137       C  0.86899446  0.53595108  0.94620026     0.76500
O1138       O  0.64876993  0.43604746  0.02648908    -0.59500
O1139       O  0.61876704  0.49061915  0.02142136    -0.52700
C1140       C  0.61147155  0.44451117  0.02325667     0.73100
Zr1141     Zr  0.73773657  0.47182455  0.52684470     2.54700
O1142       O  0.69437335  0.38372170  0.01616487    -0.80100
O1143       O  0.72107381  0.43406539  0.57240594    -0.93500
Zr1144     Zr  0.77670657  0.55570606  0.96090870     2.64700
O1145       O  0.70939477  0.49023861  0.93148666    -0.98500
O1146       O  0.81655559  0.59444313  0.91748845    -0.80500
O1147       O  0.79907378  0.51137743  0.99280506    -0.83900
O1148       O  0.71405829  0.51179058  0.99480198    -2.18600
O1149       O  0.75452580  0.62807737  0.58909433    -0.67300
O1150       O  0.67874664  0.58146720  0.56713365    -0.51800
C1151       C  0.70599136  0.60345897  0.58912294     0.71500
O1152       O  0.94479264  0.71971429  0.00259161    -0.60200
O1153       O  0.95718142  0.65100153  0.50760191    -0.52200
C1154       C  0.97370672  0.69883175  0.50365822     0.73300
O1155       O  0.78459554  0.71845892  0.00371515    -0.71600
O1156       O  0.70451364  0.65332817  0.01415616    -0.50300
C1157       C  0.73533613  0.70003759  0.00771763     0.74700
O1158       O  0.89821412  0.62551255  0.57368292    -0.66900
O1159       O  0.91888430  0.57083880  0.55724606    -0.54100
C1160       C  0.91204749  0.59288145  0.57821023     0.73100
Zr1161     Zr  0.80815310  0.59755507  0.57171499     2.77500
O1162       O  0.84522202  0.65391825  0.61198049    -0.97700
O1163       O  0.78393700  0.53484328  0.60789705    -0.78500
Zr1164     Zr  0.84776060  0.68381297  0.00537462     2.70100
O1165       O  0.88097116  0.75194980  0.54055948    -0.79700
O1166       O  0.86563788  0.72666226  0.96125726    -0.98800
Zr1167     Zr  0.87815234  0.57076355  0.51316417     2.21500
Zr1168     Zr  0.70403079  0.57425761  0.02031114     2.11100
O1169       O  0.78165343  0.63875269  0.53935560    -2.47500
O1170       O  0.87039165  0.63744373  0.53709072    -0.79500
O1171       O  0.72807719  0.53302665  0.55258738    -0.71700
O1172       O  0.85594565  0.61813787  0.98105852    -2.32700
O1173       O  0.81476516  0.53191011  0.54846034    -2.28900
O1174       O  0.76915285  0.61788165  0.98678376    -0.73500
H1175       H  0.68303048  0.48748010  0.98519451     0.78500
H1176       H  0.88111215  0.63365399  0.96680890     0.79600
H1177       H  0.77687774  0.66518067  0.54760876     0.81800
H1178       H  0.82326396  0.51387849  0.56169043     0.79400
H1179       H  0.82531819  0.63043852  0.91956174     0.42500
H1180       H  0.89165658  0.72031098  0.95269534     0.41400
H1181       H  0.87614119  0.73469484  0.55844092     0.41100
H1182       H  0.84455076  0.68544986  0.60779458     0.39100
H1183       H  0.74833600  0.52541314  0.61227971     0.42200
H1184       H  0.71638224  0.39966723  0.56916344     0.37000
H1185       H  0.69971860  0.38316971  0.99602076     0.43100
H1186       H  0.72417586  0.49557698  0.91281393     0.39500
H1187       H  0.82053518  0.63771593  0.62704440     0.44400
H1188       H  0.68653558  0.42787154  0.57696972     0.43100
H1189       H  0.70677055  0.45795146  0.93751458     0.43300
H1190       H  0.83424092  0.70590501  0.94996428     0.43600
O1191       O  0.64420479  0.20841429  0.50132425    -0.75200
O1192       O  0.61417236  0.12380961  0.49578125    -0.54100
C1193       C  0.60709516  0.16264024  0.49906713     0.78500
O1194       O  0.89407286  0.27294803  0.94472195    -0.59800
O1195       O  0.91685443  0.34631064  0.96552264    -0.52900
C1196       C  0.91358705  0.32086548  0.94329170     0.70500
O1197       O  0.72907279  0.16235253  0.92065276    -0.74400
O1198       O  0.66791520  0.09913346  0.94664192    -0.55000
C1199       C  0.68635106  0.12170527  0.92355621     0.76500
O1200       O  0.78991356  0.35470516  0.00652613    -0.59500
O1201       O  0.87532478  0.38563789  0.01228919    -0.52700
C1202       C  0.83575636  0.39183409  0.01055302     0.73100
Zr1203     Zr  0.73468053  0.26227415  0.50318693     2.54700
O1204       O  0.70831424  0.29497117  0.96186212    -0.80100
O1205       O  0.70129231  0.29243863  0.53995551    -0.93500
Zr1206     Zr  0.80275640  0.22079585  0.94645615     2.64700
O1207       O  0.79980942  0.27890673  0.91318330    -0.98500
O1208       O  0.82370999  0.18310769  0.90762271    -0.80500
O1209       O  0.72503358  0.19946300  0.96867141    -0.83900
O1210       O  0.81191917  0.28810849  0.97587856    -2.18600
O1211       O  0.80844279  0.28424911  0.56629005    -0.67300
O1212       O  0.89158406  0.32763396  0.56021915    -0.51800
C1213       C  0.85280361  0.31234055  0.57633007     0.71500
O1214       O  0.78756845  0.06111401  0.00096040    -0.60200
O1215       O  0.70575272  0.04736470  0.49330007    -0.52200
C1216       C  0.73738227  0.03042835  0.49542883     0.73300
O1217       O  0.94517157  0.22451624  0.00124324    -0.71600
O1218       O  0.95822657  0.30511433  0.00903864    -0.50300
C1219       C  0.97516032  0.27428759  0.00417869     0.74700
O1220       O  0.72789772  0.10580752  0.55577183    -0.66900
O1221       O  0.65354415  0.07904268  0.53584130    -0.54100
C1222       C  0.67979101  0.08477436  0.55785699     0.73100
Zr1223     Zr  0.78132968  0.19693461  0.55785557     2.77500
O1224       O  0.83468925  0.18927344  0.59327701    -0.97700
O1225       O  0.73473118  0.19310014  0.59947673    -0.78500
Zr1226     Zr  0.84764144  0.15930692  0.00272311     2.70100
O1227       O  0.87913992  0.12747399  0.53676876    -0.79700
O1228       O  0.88070006  0.13012867  0.96524681    -0.98800
Zr1229     Zr  0.69858535  0.12375522  0.49435432     2.21500
Zr1230     Zr  0.87772507  0.30379876  0.00946084     2.11100
O1231       O  0.85914565  0.22479933  0.53352685    -2.47500
O1232       O  0.76875187  0.13554971  0.52387732    -0.79500
O1233       O  0.79848966  0.27009589  0.53292765    -0.71700
O1234       O  0.77907242  0.14550784  0.97118285    -2.32700
O1235       O  0.71292072  0.18724694  0.52870166    -2.28900
O1236       O  0.86673791  0.23491365  0.97922990    -0.73500
H1237       H  0.82076471  0.31811026  0.96529047     0.78500
H1238       H  0.77278898  0.11844520  0.95820445     0.79600
H1239       H  0.88672252  0.23165713  0.54628154     0.81800
H1240       H  0.68291045  0.17755388  0.53964714     0.79400
H1241       H  0.85085727  0.17696832  0.91485590     0.42500
H1242       H  0.87906362  0.09879069  0.97218578     0.41400
H1243       H  0.85200508  0.11422799  0.55079684     0.41100
H1244       H  0.81679467  0.18603053  0.61084625     0.39100
H1245       H  0.70280586  0.19114478  0.59264335     0.42200
H1246       H  0.68105056  0.26229454  0.55149116     0.37000
H1247       H  0.74029659  0.32188429  0.95373063     0.43100
H1248       H  0.79577994  0.26181541  0.89499819     0.39500
H1249       H  0.83037089  0.15506446  0.58992443     0.44400
H1250       H  0.67553017  0.29828096  0.53055717     0.43100
H1251       H  0.76633924  0.27659173  0.91620239     0.43300
H1252       H  0.85401682  0.11792537  0.95052819     0.43600
O1253       O  0.36087888  0.79410726  0.48141565    -0.75200
O1254       O  0.39186029  0.87835595  0.48937635    -0.54100
C1255       C  0.39864530  0.83963457  0.48508111     0.78500
O1256       O  0.11860336  0.74909086  0.92713535    -0.59800
O1257       O  0.09279869  0.67162397  0.94242407    -0.52900
C1258       C  0.09985980  0.70172776  0.92237000     0.70500
O1259       O  0.26867081  0.88827774  0.92337847    -0.74400
O1260       O  0.34231612  0.90782531  0.94479562    -0.55000
C1261       C  0.31627286  0.90469138  0.92287987     0.76500
O1262       O  0.21651090  0.64886832  0.98149584    -0.59500
O1263       O  0.13157259  0.61765051  0.98723336    -0.52700
C1264       C  0.17092802  0.61129183  0.98417614     0.73100
Zr1265     Zr  0.26926432  0.73751125  0.48171811     2.54700
O1266       O  0.29514040  0.71222630  0.94007057    -0.80100
O1267       O  0.31108040  0.70570847  0.51201275    -0.93500
Zr1268     Zr  0.20908402  0.80181038  0.93460913     2.64700
O1269       O  0.23856053  0.76991522  0.89682107    -0.98500
O1270       O  0.18413998  0.82578918  0.89189902    -0.80500
O1271       O  0.28427029  0.81284990  0.95724357    -0.83900
O1272       O  0.19747816  0.72656683  0.95617998    -2.18600
O1273       O  0.14522039  0.71484572  0.56601711    -0.67300
O1274       O  0.08917755  0.65872139  0.53395693    -0.51800
C1275       C  0.10326698  0.67500549  0.55916027     0.71500
O1276       O  0.22188381  0.94202882  0.00118584    -0.60200
O1277       O  0.30210977  0.95292981  0.49564772    -0.52200
C1278       C  0.27034391  0.96911426  0.49976291     0.73300
O1279       O  0.06296009  0.77977762  0.00193663    -0.71600
O1280       O  0.04987724  0.69940073  0.99377994    -0.50300
C1281       C  0.03305472  0.73002462  0.99929745     0.74700
O1282       O  0.26473226  0.87033597  0.55346725    -0.66900
O1283       O  0.34338907  0.90543516  0.53825166    -0.54100
C1284       C  0.31237671  0.89382627  0.55845970     0.73100
Zr1285     Zr  0.22197614  0.78000589  0.54616149     2.77500
O1286       O  0.22043532  0.79687731  0.59548263    -0.97700
O1287       O  0.27379968  0.74838559  0.56740565    -0.78500
Zr1288     Zr  0.16040854  0.84390008  0.99899717     2.70100
O1289       O  0.13784507  0.86569771  0.54313702    -0.79700
O1290       O  0.12265841  0.87494500  0.96534977    -0.98800
Zr1291     Zr  0.30655569  0.87581078  0.49137420     2.21500
Zr1292     Zr  0.12967456  0.70062941  0.98899549     2.11100
O1293       O  0.14735454  0.76582982  0.52200198    -2.47500
O1294       O  0.23513014  0.85226504  0.52161473    -0.79500
O1295       O  0.20313469  0.71303476  0.51434572    -0.71700
O1296       O  0.23044806  0.86686689  0.96866193    -2.32700
O1297       O  0.29124906  0.80150026  0.51603340    -2.28900
O1298       O  0.14151875  0.77679242  0.96642975    -0.73500
H1299       H  0.18988307  0.70045728  0.94242885     0.78500
H1300       H  0.23483376  0.89804659  0.96114178     0.79600
H1301       H  0.11936799  0.75712189  0.53435465     0.81800
H1302       H  0.32129962  0.80767737  0.52644072     0.79400
H1303       H  0.16827395  0.84593862  0.89801773     0.42500
H1304       H  0.10161592  0.84517806  0.95302794     0.41400
H1305       H  0.14790281  0.84898696  0.55734069     0.41100
H1306       H  0.19036370  0.80136655  0.59780085     0.39100
H1307       H  0.24897721  0.71269810  0.57200983     0.42200
H1308       H  0.31735030  0.68301434  0.49983553     0.37000
H1309       H  0.30729475  0.68936574  0.94680757     0.43100
H1310       H  0.24792352  0.74616088  0.90528556     0.39500
H1311       H  0.21127166  0.76460507  0.60479789     0.44400
H1312       H  0.28408536  0.68257014  0.52469064     0.43100
H1313       H  0.20785348  0.74844260  0.88526406     0.43300
H1314       H  0.09748988  0.87981891  0.97598379     0.43600
O1315       O  0.63072882  0.86544720  0.91880255    -0.75200
O1316       O  0.58421272  0.89702460  0.93779728    -0.54100
C1317       C  0.60620523  0.88894139  0.91674908     0.78500
O1318       O  0.44134582  0.64593832  0.99026380    -0.59800
O1319       O  0.49393710  0.61389154  0.99743525    -0.52900
C1320       C  0.44872594  0.60793674  0.99296424     0.70500
O1321       O  0.44031391  0.79353582  0.48785714    -0.74400
O1322       O  0.49566454  0.87843339  0.48570314    -0.55000
C1323       C  0.44921432  0.83942814  0.48619205     0.76500
O1324       O  0.62670393  0.72867361  0.93798847    -0.59500
O1325       O  0.56882821  0.65603587  0.95490153    -0.52700
C1326       C  0.59375027  0.68223269  0.93414343     0.73100
Zr1327     Zr  0.59293090  0.78491119  0.93953674     2.54700
O1328       O  0.51653335  0.74522476  0.91029023    -0.80100
O1329       O  0.61948204  0.78783783  0.89205150    -0.93500
Zr1330     Zr  0.47508597  0.73789163  0.49173368     2.64700
O1331       O  0.41293422  0.70423704  0.95284769    -0.98500
O1332       O  0.41160906  0.70797249  0.52800162    -0.80500
O1333       O  0.53207752  0.80244890  0.96003540    -0.83900
O1334       O  0.53136236  0.71694734  0.96601068    -2.18600
O1335       O  0.72674882  0.77910684  0.00390020    -0.67300
O1336       O  0.65737809  0.69821047  0.00274876    -0.51800
C1337       C  0.70612581  0.72924555  0.00428897     0.71500
O1338       O  0.62850092  0.89055046  0.55006034    -0.60200
O1339       O  0.58370636  0.92169547  0.53119059    -0.52200
C1340       C  0.60491738  0.91509105  0.55268818     0.73300
O1341       O  0.57637305  0.73166802  0.57570164    -0.71600
O1342       O  0.56632150  0.66587270  0.54773453    -0.50300
C1343       C  0.56929595  0.68699426  0.57165988     0.74700
O1344       O  0.72823339  0.94123543  0.00064604    -0.66900
O1345       O  0.66067828  0.95481672  0.48849817    -0.54100
C1346       C  0.70832487  0.97140497  0.49403872     0.73100
Zr1347     Zr  0.69300664  0.84249093  0.00073684     2.77500
O1348       O  0.74968974  0.87569687  0.53834896    -0.97700
O1349       O  0.75935921  0.87004607  0.96611897    -0.78500
Zr1350     Zr  0.57804375  0.79910259  0.55036302     2.70100
O1351       O  0.61374320  0.82449936  0.59698561    -0.79700
O1352       O  0.50444161  0.78815145  0.57633263    -0.98800
Zr1353     Zr  0.57972399  0.87723413  0.48751519     2.21500
Zr1354     Zr  0.57709854  0.69773875  0.00006065     2.11100
O1355       O  0.63168910  0.77428022  0.52744551    -2.47500
O1356       O  0.63229238  0.86161340  0.51940994    -0.79500
O1357       O  0.63985822  0.76778728  0.97298362    -0.71700
O1358       O  0.52507191  0.81213807  0.51901711    -2.32700
O1359       O  0.64307994  0.85825270  0.96814380    -2.28900
O1360       O  0.52345441  0.72334076  0.52504390    -0.73500
H1361       H  0.51017821  0.68820914  0.95404606     0.78500
H1362       H  0.50391259  0.82235676  0.52891331     0.79600
H1363       H  0.65072459  0.76678599  0.54086491     0.81800
H1364       H  0.66904352  0.88836419  0.95933817     0.79400
H1365       H  0.41530124  0.73930005  0.53683417     0.42500
H1366       H  0.48061861  0.75092112  0.57584847     0.41400
H1367       H  0.64651852  0.82452041  0.59644579     0.41100
H1368       H  0.74048154  0.84572942  0.54993165     0.39100
H1369       H  0.75860652  0.89840842  0.95664774     0.42200
H1370       H  0.59289909  0.75668277  0.88251675     0.37000
H1371       H  0.51953636  0.77291239  0.89842262     0.43100
H1372       H  0.42510685  0.73234904  0.93954785     0.39500
H1373       H  0.78349364  0.88468873  0.53078511     0.44400
H1374       H  0.64998589  0.78394222  0.89327038     0.43100
H1375       H  0.41785779  0.67796693  0.94328787     0.43300
H1376       H  0.51644432  0.79587076  0.59582310     0.43600
O1377       O  0.21528190  0.56565411  0.48318508    -0.75200
O1378       O  0.13044478  0.51325668  0.48972583    -0.54100
C1379       C  0.16977263  0.55830211  0.48594153     0.78500
O1380       O  0.26464614  0.37364779  0.92957260    -0.59800
O1381       O  0.34123332  0.42626004  0.94674387    -0.52900
C1382       C  0.31186537  0.40435017  0.92566488     0.70500
O1383       O  0.12408262  0.38750849  0.92000022    -0.74400
O1384       O  0.10730097  0.44199795  0.94292630    -0.55000
C1385       C  0.11062869  0.42096643  0.92018295     0.76500
O1386       O  0.36132031  0.56606557  0.98645383    -0.59500
O1387       O  0.39125703  0.51201094  0.99393299    -0.52700
C1388       C  0.39834770  0.55773697  0.99087419     0.73100
Zr1389     Zr  0.26945663  0.52807323  0.48445989     2.54700
O1390       O  0.30320903  0.58742610  0.94455750    -0.80100
O1391       O  0.30600613  0.59832995  0.51813159    -0.93500
Zr1392     Zr  0.20706970  0.40607328  0.93562481     2.64700
O1393       O  0.24261552  0.46178487  0.89618803    -0.98500
O1394       O  0.17025213  0.34147111  0.89893841    -0.80500
O1395       O  0.19750657  0.47053692  0.95861918    -0.83900
O1396       O  0.28294766  0.47046020  0.95838910    -2.18600
O1397       O  0.29489047  0.43405705  0.56765262    -0.67300
O1398       O  0.34688698  0.42636298  0.53639132    -0.51800
C1399       C  0.33318586  0.42917031  0.56127965     0.71500
O1400       O  0.06370583  0.28435209  0.00289004    -0.60200
O1401       O  0.04949003  0.35003974  0.49615888    -0.52200
C1402       C  0.03245287  0.30210589  0.50025086     0.73300
O1403       O  0.22286335  0.28185455  0.00128743    -0.71600
O1404       O  0.30411271  0.34778222  0.99404346    -0.50300
C1405       C  0.27247523  0.30046983  0.99854636     0.74700
O1406       O  0.16516582  0.45670184  0.56903989    -0.66900
O1407       O  0.10402097  0.44742798  0.53758088    -0.54100
C1408       C  0.12470553  0.45742680  0.56217509     0.73100
Zr1409     Zr  0.22450960  0.43784691  0.54765425     2.77500
O1410       O  0.18824887  0.37910865  0.58576609    -0.97700
O1411       O  0.27096055  0.51223421  0.57799234    -0.78500
Zr1412     Zr  0.16078057  0.31789075  0.99987613     2.70100
O1413       O  0.12713677  0.25508361  0.53652807    -0.79700
O1414       O  0.12240032  0.24563110  0.96762462    -0.98800
Zr1415     Zr  0.12997249  0.42956609  0.49199075     2.21500
Zr1416     Zr  0.30695558  0.42829397  0.99221690     2.11100
O1417       O  0.23590336  0.37693252  0.52288996    -2.47500
O1418       O  0.14905988  0.37933204  0.52324669    -0.79500
O1419       O  0.29204802  0.48530430  0.51726564    -0.71700
O1420       O  0.14026490  0.36507326  0.96814481    -2.32700
O1421       O  0.20547342  0.48634561  0.51709928    -2.28900
O1422       O  0.22947154  0.36378572  0.96875872    -0.73500
H1423       H  0.30967642  0.48858929  0.94526521     0.78500
H1424       H  0.10853608  0.34037153  0.95927450     0.79600
H1425       H  0.24487418  0.35834111  0.53565029     0.81800
H1426       H  0.20133398  0.51163149  0.52719421     0.79400
H1427       H  0.14977770  0.30910353  0.90873702     0.42500
H1428       H  0.09475286  0.21792826  0.97818865     0.41400
H1429       H  0.15611684  0.26761291  0.54987024     0.41100
H1430       H  0.19503139  0.35110693  0.58126817     0.39100
H1431       H  0.26965405  0.49822612  0.59653564     0.47000
H1432       H  0.32682302  0.59051563  0.53090563     0.37000
H1433       H  0.31979981  0.57316957  0.93271811     0.43100
H1434       H  0.23044279  0.43884439  0.87971174     0.39500
H1435       H  0.21108920  0.39714787  0.60180761     0.44400
H1436       H  0.27698144  0.59402494  0.52944095     0.43100
H1437       H  0.27992124  0.47519265  0.89709658     0.43300
H1438       H  0.10428652  0.25476432  0.95371113     0.43600
O1439       O  0.47298824  0.17318139  0.93534824    -0.75200
O1440       O  0.43103178  0.09677535  0.95526396    -0.54100
C1441       C  0.45162801  0.12477808  0.93406883     0.78500
O1442       O  0.56881162  0.35621631  0.01989377    -0.59800
O1443       O  0.51540969  0.38820475  0.01612435    -0.52900
C1444       C  0.56092842  0.39416251  0.01982498     0.70500
O1445       O  0.56374802  0.20721210  0.50507712    -0.74400
O1446       O  0.51105297  0.12223594  0.49993295    -0.55000
C1447       C  0.55758304  0.16304662  0.00107530     0.76500
O1448       O  0.44665419  0.30067882  0.93558489    -0.59500
O1449       O  0.44236681  0.35280255  0.96860873    -0.52700
C1450       C  0.44795010  0.34148936  0.94357105     0.73100
Zr1451     Zr  0.43365383  0.22096521  0.95060894     2.54700
O1452       O  0.47787008  0.25017968  0.90681366    -0.80100
O1453       O  0.35810930  0.17580422  0.92064227    -0.93500
Zr1454     Zr  0.53214569  0.26560484  0.01214604     2.64700
O1455       O  0.59603955  0.30319615  0.97622789    -0.98500
O1456       O  0.58611409  0.28416274  0.55176550    -0.80500
O1457       O  0.48568442  0.20169610  0.97869130    -0.83900
O1458       O  0.48574036  0.28847695  0.98219520    -2.18600
O1459       O  0.28189422  0.22172455  0.99832485    -0.67300
O1460       O  0.34950357  0.30213617  0.00747553    -0.51800
C1461       C  0.30153996  0.27118035  0.00193617     0.71500
O1462       O  0.38448637  0.11223538  0.56212199    -0.60200
O1463       O  0.43634416  0.08775802  0.54699766    -0.52200
C1464       C  0.41731085  0.09905734  0.56750685     0.73300
O1465       O  0.38648018  0.25746440  0.58030024    -0.71600
O1466       O  0.43581355  0.33169322  0.56031145    -0.50300
C1467       C  0.41800785  0.30464504  0.58212873     0.74700
O1468       O  0.28048698  0.06109976  0.99963926    -0.66900
O1469       O  0.34770537  0.04530446  0.50243485    -0.54100
C1470       C  0.29898306  0.02759358  0.50169324     0.73100
Zr1471     Zr  0.31648474  0.15902558  0.99982152     2.77500
O1472       O  0.25234870  0.12242576  0.54053347    -0.97700
O1473       O  0.26023639  0.13136543  0.95925796    -0.78500
Zr1474     Zr  0.41408497  0.20108905  0.56372548     2.70100
O1475       O  0.37069457  0.17439620  0.60770849    -0.79700
O1476       O  0.48074788  0.22620999  0.59902692    -0.98800
Zr1477     Zr  0.42969543  0.12680878  0.00264662     2.21500
Zr1478     Zr  0.43116303  0.30473164  0.01077303     2.11100
O1479       O  0.36445235  0.22309796  0.53427929    -2.47500
O1480       O  0.36730333  0.13496298  0.53067885    -0.79500
O1481       O  0.37857131  0.23625756  0.97822211    -0.71700
O1482       O  0.47480587  0.19137690  0.53687475    -2.32700
O1483       O  0.37587259  0.14552544  0.97329411    -2.28900
O1484       O  0.47404300  0.27576365  0.54088011    -0.73500
H1485       H  0.51012039  0.31864803  0.97271156     0.78500
H1486       H  0.49613462  0.18441358  0.54871754     0.79600
H1487       H  0.33856272  0.22803198  0.54300633     0.81800
H1488       H  0.35729144  0.11809509  0.96001613     0.79400
H1489       H  0.61199658  0.32060908  0.54998630     0.42500
H1490       H  0.51143958  0.25504851  0.59103462     0.41400
H1491       H  0.33396503  0.15386395  0.60264261     0.41100
H1492       H  0.27385617  0.13183001  0.55753927     0.39100
H1493       H  0.22605725  0.10728863  0.96650960     0.42200
H1494       H  0.37031547  0.18486671  0.90151559     0.37000
H1495       H  0.45301869  0.25074681  0.89357284     0.43100
H1496       H  0.60750835  0.34000722  0.97653897     0.39500
H1497       H  0.23722963  0.14481852  0.54097253     0.44400
H1498       H  0.33840995  0.19335249  0.92405808     0.43100
H1499       H  0.62570336  0.30106333  0.98332613     0.43300
H1500       H  0.47101885  0.24189097  0.61413206     0.43600
C1501       C  0.50673949  0.36447228  0.64433672    -0.05700
C1502       C  0.47228417  0.34401656  0.66629263     0.00200
C1503       C  0.42078067  0.30805116  0.66029764    -0.08400
C1504       C  0.40393060  0.29967796  0.63252484    -0.05700
C1505       C  0.43752267  0.32421421  0.61051546     0.00200
C1506       C  0.49033105  0.35595709  0.61655908    -0.08300
C1507       C  0.52959733  0.38066895  0.59410220     0.62100
H1508       H  0.54643058  0.39131063  0.64940082     0.12800
H1509       H  0.36407696  0.27308803  0.62775165     0.12800
C1510       C  0.38423717  0.27842061  0.68313677     0.62300
F1511       F  0.57860679  0.40985901  0.60488477    -0.22800
F1512       F  0.51813927  0.41167419  0.57853521    -0.20200
F1513       F  0.52965476  0.34378551  0.57727220    -0.19800
F1514       F  0.37675840  0.31073230  0.70037237    -0.19900
F1515       F  0.40461238  0.25431398  0.69838439    -0.20200
F1516       F  0.33707446  0.24158135  0.67270724    -0.22900
C1517       C  0.40941049  0.35712441  0.90480333    -0.05700
C1518       C  0.45456801  0.37414478  0.92040538     0.00200
C1519       C  0.50219394  0.39686886  0.90681953    -0.08400
C1520       C  0.50268331  0.39969640  0.87791978    -0.05700
C1521       C  0.45721074  0.37815798  0.86228220     0.00200
C1522       C  0.40976452  0.35521502  0.87580860    -0.08300
C1523       C  0.36032990  0.32157440  0.85990027     0.62100
H1524       H  0.37327724  0.33703788  0.91538853     0.12800
H1525       H  0.53892757  0.41861245  0.86735371     0.12800
C1526       C  0.55164271  0.40955531  0.92171375     0.62300
F1527       F  0.31794402  0.30620383  0.87634760    -0.22800
F1528       F  0.36084746  0.27856032  0.85052899    -0.20200
F1529       F  0.35524154  0.34639021  0.83746877    -0.19800
F1530       F  0.56017583  0.36904263  0.91872190    -0.19900
F1531       F  0.54976845  0.41896958  0.94958493    -0.20200
F1532       F  0.59238210  0.45211111  0.91058772    -0.22900
C1533       C  0.71573665  0.62598764  0.63939821    -0.05700
C1534       C  0.68281998  0.59754988  0.61689911     0.00200
C1535       C  0.63264691  0.55874810  0.62257260    -0.08400
C1536       C  0.61992429  0.54559875  0.65012399    -0.05700
C1537       C  0.65436833  0.57060579  0.67254951     0.00200
C1538       C  0.70235128  0.61332647  0.66719103    -0.08300
C1539       C  0.73980817  0.64415300  0.69031524     0.62100
H1540       H  0.75321109  0.65763627  0.63506865     0.12800
H1541       H  0.58227895  0.51397367  0.65415427     0.12800
C1542       C  0.59290452  0.52939542  0.60002680     0.62300
F1543       F  0.78515312  0.68324179  0.68031210    -0.22800
F1544       F  0.75121453  0.61295479  0.70576921    -0.20200
F1545       F  0.71854414  0.66563576  0.70715872    -0.19800
F1546       F  0.60728827  0.49983158  0.58485591    -0.19900
F1547       F  0.58832247  0.56294974  0.58279461    -0.20200
F1548       F  0.54510802  0.49748398  0.61072397    -0.22900
C1549       C  0.68941444  0.57124806  0.90231862    -0.05700
C1550       C  0.65954388  0.56857600  0.92516223     0.00200
C1551       C  0.60850955  0.55618031  0.92049213    -0.08400
C1552       C  0.58969208  0.54818795  0.89296579    -0.05700
C1553       C  0.61952451  0.55006368  0.86989690     0.00200
C1554       C  0.67047015  0.56097912  0.87499486    -0.08300
C1555       C  0.70551322  0.56190802  0.85225140     0.62100
H1556       H  0.72844476  0.58081786  0.90604382     0.12800
H1557       H  0.55074925  0.53948879  0.88950924     0.12800
C1558       C  0.57427728  0.55104527  0.94449025     0.62300
F1559       F  0.75177937  0.56958579  0.86259334    -0.22800
F1560       F  0.71618540  0.60117937  0.83446459    -0.20200
F1561       F  0.68244266  0.51585194  0.83788248    -0.19800
F1562       F  0.59835613  0.59346386  0.96164295    -0.19900
F1563       F  0.56375424  0.50871243  0.95959088    -0.20200
F1564       F  0.52852544  0.54613534  0.93580672    -0.22900
C1565       C  0.59925360  0.65185933  0.64099608    -0.05700
C1566       C  0.55142351  0.63145922  0.65364878     0.00200
C1567       C  0.50916188  0.62726427  0.63845382    -0.08400
C1568       C  0.51560915  0.64080302  0.61045611    -0.05700
C1569       C  0.56310138  0.66003201  0.59760977     0.00200
C1570       C  0.60623901  0.66868438  0.61351286    -0.08300
C1571       C  0.65944351  0.69766324  0.60157403     0.62100
H1572       H  0.63123650  0.65513945  0.65296312     0.12800
H1573       H  0.48399970  0.63863475  0.59856990     0.12800
C1574       C  0.45787972  0.60974762  0.65190015     0.62300
F1575       F  0.69664729  0.70370888  0.62047576    -0.22800
F1576       F  0.67016045  0.74577320  0.59402732    -0.20200
F1577       F  0.66216666  0.67189757  0.57845860    -0.19800
F1578       F  0.46397057  0.64235045  0.67371308    -0.19900
F1579       F  0.43857198  0.56114746  0.66164563    -0.20200
F1580       F  0.42220685  0.60922435  0.63354688    -0.22900
C1581       C  0.52492640  0.64840080  0.89882947    -0.05700
C1582       C  0.57643218  0.66484363  0.90526707     0.00200
C1583       C  0.61146080  0.67695430  0.88325149    -0.08400
C1584       C  0.59330537  0.67158800  0.85577776    -0.05700
C1585       C  0.54162792  0.65416094  0.84946099     0.00200
C1586       C  0.50764788  0.64533413  0.87142537    -0.08300
C1587       C  0.45259946  0.63198556  0.86641056     0.62100
H1588       H  0.49814953  0.64039453  0.91535921     0.12800
H1589       H  0.61901668  0.67670645  0.83901165     0.12800
C1590       C  0.66790163  0.69428280  0.88729446     0.62300
F1591       F  0.44308095  0.63723040  0.83897856    -0.22800
F1592       F  0.44205434  0.66396188  0.88209129    -0.20200
F1593       F  0.41980866  0.58251460  0.87404830    -0.19800
F1594       F  0.68169853  0.69367980  0.91452986    -0.19900
F1595       F  0.69722514  0.74304826  0.87751834    -0.20200
F1596       F  0.67958650  0.66257173  0.87226203    -0.22900
C1597       C  0.42408156  0.47451388  0.62145051    -0.05700
C1598       C  0.39127776  0.44261511  0.64230422     0.00200
C1599       C  0.34314839  0.40094134  0.63424930    -0.08400
C1600       C  0.33015966  0.39244967  0.60594252    -0.05700
C1601       C  0.36095517  0.42680196  0.58574196     0.00200
C1602       C  0.40907063  0.46804283  0.59335960    -0.08300
C1603       C  0.44301980  0.50585735  0.57194899     0.62100
H1604       H  0.46121011  0.50606378  0.62743975     0.12800
H1605       H  0.29277993  0.36175650  0.59949580     0.12800
C1606       C  0.30431993  0.36698066  0.65512848     0.62300
F1607       F  0.48773512  0.54441757  0.58363999    -0.22800
F1608       F  0.41782055  0.52793044  0.55926923    -0.20200
F1609       F  0.45571719  0.48094065  0.55213332    -0.19800
F1610       F  0.28886197  0.39534664  0.67066223    -0.19900
F1611       F  0.32560699  0.34634557  0.67227266    -0.20200
F1612       F  0.26127091  0.32718165  0.64252157    -0.22900
C1613       C  0.29368310  0.39230814  0.87467790    -0.05700
C1614       C  0.32952270  0.41833189  0.89641810     0.00200
C1615       C  0.37784631  0.45988160  0.88946413    -0.08400
C1616       C  0.38835732  0.47226963  0.86146359    -0.05700
C1617       C  0.35228314  0.44748614  0.83982567     0.00200
C1618       C  0.30351626  0.40697128  0.84672394    -0.08300
C1619       C  0.26172654  0.37962844  0.82500523     0.62100
H1620       H  0.25695353  0.36033073  0.87971290     0.12800
H1621       H  0.42594940  0.50246031  0.85629500     0.12800
C1622       C  0.41839245  0.49278453  0.91097757     0.62300
F1623       F  0.21505603  0.34718715  0.83673540    -0.22800
F1624       F  0.27427056  0.35106500  0.80766963    -0.20200
F1625       F  0.25601779  0.41477020  0.80973567    -0.19800
F1626       F  0.43183021  0.46324485  0.92652823    -0.19900
F1627       F  0.40031872  0.51704591  0.92801859    -0.20200
F1628       F  0.46220465  0.53020758  0.89887537    -0.22900
C1629       C  0.90823009  0.60578194  0.62894685    -0.05700
C1630       C  0.90882171  0.57447515  0.60725899     0.00200
C1631       C  0.89836593  0.52470475  0.61380863    -0.08400
C1632       C  0.88264312  0.50696572  0.64062753    -0.05700
C1633       C  0.88020220  0.53739826  0.66217582     0.00200
C1634       C  0.89284653  0.58808702  0.65607561    -0.08300
C1635       C  0.88881406  0.62323376  0.67736947     0.62100
H1636       H  0.91961661  0.64476312  0.62431959     0.12800
H1637       H  0.87281860  0.46827808  0.64501496     0.12800
C1638       C  0.90389486  0.48951762  0.59333086     0.62300
F1639       F  0.89763401  0.66851895  0.66596249    -0.22800
F1640       F  0.92431780  0.63530576  0.69844456    -0.20200
F1641       F  0.84019432  0.59961924  0.68816656    -0.19800
F1642       F  0.94960789  0.51528022  0.58011997    -0.19900
F1643       F  0.86481675  0.47080891  0.57405790    -0.20200
F1644       F  0.90337504  0.44869278  0.60609975    -0.22900
C1645       C  0.84247516  0.51624992  0.89647551    -0.05700
C1646       C  0.88270195  0.53723773  0.91642012     0.00200
C1647       C  0.93348806  0.55990344  0.90714246    -0.08400
C1648       C  0.94226634  0.56458426  0.87854613    -0.05700
C1649       C  0.90219268  0.54243463  0.85865277     0.00200
C1650       C  0.85119062  0.51726422  0.86784368    -0.08300
C1651       C  0.80627766  0.48882278  0.84789284     0.62100
H1652       H  0.80347927  0.49771956  0.90345730     0.12800
H1653       H  0.98131495  0.58326878  0.87140720     0.12800
C1654       C  0.97828300  0.57645048  0.92697545     0.62300
F1655       F  0.75991879  0.46610502  0.86132530    -0.22800
F1656       F  0.81069910  0.45092166  0.83418216    -0.20200
F1657       F  0.80549597  0.52212156  0.82891849    -0.19800
F1658       F  0.96766915  0.53880915  0.94590343    -0.19900
F1659       F  0.98819038  0.62077450  0.94073541    -0.20200
F1660       F  0.02161397  0.58480945  0.91324726    -0.22900
C1661       C  0.81925998  0.33909334  0.64767820    -0.05700
C1662       C  0.84685871  0.32413260  0.66480074     0.00200
C1663       C  0.86859258  0.29692303  0.65266469    -0.08400
C1664       C  0.87312799  0.29698048  0.62357141    -0.05700
C1665       C  0.85460975  0.32158599  0.60653850     0.00200
C1666       C  0.82303631  0.33888733  0.61874199    -0.08300
C1667       C  0.79106662  0.35552970  0.60215224     0.62100
H1668       H  0.79974282  0.35707282  0.65721409     0.12800
H1669       H  0.89099003  0.27759584  0.61395215     0.12800
C1670       C  0.88730961  0.26885195  0.67062813     0.62300
F1671       F  0.79002584  0.39573975  0.61539430    -0.22800
F1672       F  0.74157326  0.31515916  0.59981606    -0.20200
F1673       F  0.80974748  0.37124475  0.57598469    -0.19800
F1674       F  0.90549042  0.24293519  0.65494236    -0.19900
F1675       F  0.84713325  0.23379902  0.68617740    -0.20200
F1676       F  0.92614959  0.30248750  0.68824909    -0.22900
C1677       C  0.95321996  0.41174205  0.88181860    -0.05700
C1678       C  0.93124284  0.37720100  0.85890555     0.00200
C1679       C  0.90738848  0.32444460  0.86434473    -0.08400
C1680       C  0.90670651  0.30910565  0.89186561    -0.05700
C1681       C  0.92540233  0.34338533  0.91479478     0.00200
C1682       C  0.95086784  0.39600939  0.90940770    -0.08300
C1683       C  0.97587250  0.43577892  0.93238774     0.62100
H1684       H  0.97177567  0.45220687  0.87826659     0.12800
H1685       H  0.88940766  0.26907632  0.89567990     0.12800
C1686       C  0.88158859  0.28384806  0.84176231     0.62300
F1687       F  0.00668028  0.48392231  0.92206898    -0.22800
F1688       F  0.00641206  0.42449428  0.94881849    -0.20200
F1689       F  0.93857220  0.43679940  0.94833826    -0.19800
F1690       F  0.91665576  0.28950024  0.82195882    -0.19900
F1691       F  0.84216350  0.28793423  0.82971841    -0.20200
F1692       F  0.86086185  0.23506943  0.85190440    -0.22900
C1693       C  0.05834377  0.42428174  0.59639441    -0.05700
C1694       C  0.10043326  0.46728592  0.58583506     0.00200
C1695       C  0.12760066  0.51156919  0.60313682    -0.08400
C1696       C  0.11111691  0.51089411  0.63034457    -0.05700
C1697       C  0.06963773  0.46731796  0.64096373     0.00200
C1698       C  0.04374128  0.42307886  0.62397908    -0.08300
C1699       C  0.00225942  0.37414288  0.63555636     0.62100
H1700       H  0.03961962  0.39010085  0.58349959     0.12800
H1701       H  0.13051663  0.54492598  0.64333678     0.12800
C1702       C  0.17440595  0.56019275  0.59419030     0.62300
F1703       F  0.02086857  0.36120831  0.65838302    -0.22800
F1704       F  0.96256720  0.38129454  0.64327016    -0.20200
F1705       F  0.98436571  0.33433957  0.61643881    -0.19800
F1706       F  0.18390246  0.55991217  0.56631333    -0.19900
F1707       F  0.21666749  0.56692718  0.60907830    -0.20200
F1708       F  0.16755378  0.60128675  0.59969607    -0.22900
C1709       C  0.13268047  0.49889475  0.85547487    -0.05700
C1710       C  0.10226169  0.46082861  0.83592924     0.00200
C1711       C  0.07565465  0.40952086  0.84415473    -0.08400
C1712       C  0.07581542  0.39868907  0.87240750    -0.05700
C1713       C  0.10371468  0.43723327  0.89241257     0.00200
C1714       C  0.13496429  0.48793044  0.88345780    -0.08300
C1715       C  0.17159922  0.53028862  0.90299262     0.62100
H1716       H  0.15301530  0.53797262  0.84871739     0.12800
H1717       H  0.05505533  0.35958086  0.87907136     0.12800
C1718       C  0.04787845  0.36655968  0.82305593     0.62300
F1719       F  0.20079425  0.57549091  0.88946180    -0.22800
F1720       F  0.20522405  0.51774488  0.91475782    -0.20200
F1721       F  0.14453286  0.53809236  0.92349398    -0.19800
F1722       F  0.08267964  0.36766374  0.80425173    -0.19900
F1723       F  0.01091627  0.37192401  0.80906414    -0.20200
F1724       F  0.02428894  0.31936921  0.83528555    -0.22900
C1725       C  0.04118957  0.58069092  0.61623570    -0.05700
C1726       C  0.04324767  0.61354004  0.63798776     0.00200
C1727       C  0.05616171  0.66392910  0.63164346    -0.08400
C1728       C  0.06938417  0.68035351  0.60432223    -0.05700
C1729       C  0.07142666  0.64882862  0.58327257     0.00200
C1730       C  0.05540442  0.59768850  0.58892001    -0.08300
C1731       C  0.05470114  0.56208557  0.56624970     0.62100
H1732       H  0.02960135  0.54161879  0.62094036     0.12800
H1733       H  0.08179798  0.71960174  0.59949924     0.12800
C1734       C  0.05686320  0.70065667  0.65346228     0.62300
F1735       F  0.03657801  0.51327028  0.57567733    -0.22800
F1736       F  0.10330840  0.57971913  0.55626205    -0.20200
F1737       F  0.02325758  0.55963093  0.54462005    -0.19800
F1738       F  0.09613317  0.71280974  0.67228289    -0.19900
F1739       F  0.01086976  0.67869764  0.66705207    -0.20200
F1740       F  0.06428664  0.74547035  0.64206134    -0.22900
C1741       C  0.11971212  0.66131687  0.85124651    -0.05700
C1742       C  0.08820115  0.67153220  0.83437940     0.00200
C1743       C  0.06018229  0.69226968  0.84676468    -0.08400
C1744       C  0.06481776  0.70162685  0.87569824    -0.05700
C1745       C  0.09086099  0.68441397  0.89288699     0.00200
C1746       C  0.11616461  0.66078750  0.88012817    -0.08300
C1747       C  0.13723338  0.63074860  0.89437505     0.62100
H1748       H  0.13977182  0.64382931  0.84167349     0.12800
H1749       H  0.04605352  0.72026464  0.88529184     0.12800
C1750       C  0.02432263  0.70245976  0.82949395     0.62300
F1751       F  0.11481566  0.58289337  0.88199697    -0.22800
F1752       F  0.12735896  0.62319369  0.92206321    -0.20200
F1753       F  0.18944741  0.65481539  0.89076858    -0.19800
F1754       F  0.98569348  0.65728287  0.81812287    -0.19900
F1755       F  0.05125667  0.73503641  0.80842450    -0.20200
F1756       F  0.00203452  0.72456304  0.84508401    -0.22900
C1757       C  0.32758495  0.92925910  0.63466342    -0.05700
C1758       C  0.33850921  0.89299919  0.64541734     0.00200
C1759       C  0.33754789  0.85548751  0.62756643    -0.08400
C1760       C  0.33667281  0.86184073  0.59880177    -0.05700
C1761       C  0.32792309  0.89953127  0.58782607     0.00200
C1762       C  0.31848551  0.93057882  0.60620795    -0.08300
C1763       C  0.29890241  0.96474415  0.59581052     0.62100
H1764       H  0.32786301  0.95753747  0.64866033     0.12800
H1765       H  0.33871978  0.83497475  0.58473393     0.12800
C1766       C  0.33273638  0.80706747  0.63917231     0.62300
F1767       F  0.29400164  0.99275806  0.61711761    -0.22800
F1768       F  0.25118587  0.93579571  0.58354471    -0.20200
F1769       F  0.33212757  0.99767095  0.57659814    -0.19800
F1770       F  0.28469068  0.77880165  0.65034460    -0.19900
F1771       F  0.36886237  0.81776256  0.65975672    -0.20200
F1772       F  0.33829176  0.77768020  0.61888389    -0.22900
C1773       C  0.34739191  0.94097018  0.84822512    -0.05700
C1774       C  0.35174938  0.89957311  0.83846562     0.00200
C1775       C  0.34493986  0.86099625  0.85684535    -0.08400
C1776       C  0.34189024  0.86896681  0.88526636    -0.05700
C1777       C  0.33744564  0.91027033  0.89513086     0.00200
C1778       C  0.33662219  0.94493194  0.87608623    -0.08300
C1779       C  0.32171622  0.98391379  0.88484906     0.62100
H1780       H  0.35235389  0.97007494  0.83380235     0.12800
H1781       H  0.33712203  0.83990320  0.89968049     0.12800
C1782       C  0.33083716  0.80818969  0.84618368     0.62300
F1783       F  0.34842754  0.00975099  0.90852605    -0.22800
F1784       F  0.26995786  0.95941718  0.89014401    -0.20200
F1785       F  0.33152746  0.01906283  0.86444103    -0.19800
F1786       F  0.36109915  0.81025314  0.82448006    -0.19900
F1787       F  0.28056429  0.78384157  0.83691835    -0.20200
F1788       F  0.33535803  0.77928537  0.86676321    -0.22900
C1789       C  0.53885927  0.90022570  0.58590564    -0.05700
C1790       C  0.59099746  0.92190206  0.58102268     0.00200
C1791       C  0.62604694  0.93911268  0.60382873    -0.08400
C1792       C  0.60698532  0.93534947  0.63089332    -0.05700
C1793       C  0.55423981  0.91241315  0.63569130     0.00200
C1794       C  0.51982586  0.89323383  0.61275638    -0.08300
C1795       C  0.46273865  0.86363598  0.61667966     0.62100
H1796       H  0.51255922  0.88595468  0.56838174     0.12800
H1797       H  0.63313301  0.95118153  0.64841459     0.12800
C1798       C  0.68321648  0.96218820  0.59959817     0.62300
F1799       F  0.43643673  0.84041239  0.59234178    -0.22800
F1800       F  0.44631255  0.89610578  0.62584928    -0.20200
F1801       F  0.45132996  0.82609143  0.63580344    -0.19800
F1802       F  0.69927158  0.99734519  0.57872299    -0.19900
F1803       F  0.69436427  0.92460367  0.59244184    -0.20200
F1804       F  0.71098725  0.98664118  0.62336052    -0.22900
C1805       C  0.54320716  0.87720703  0.88172366    -0.05700
C1806       C  0.59495951  0.89651373  0.88788330     0.00200
C1807       C  0.62956617  0.90747601  0.86540013    -0.08400
C1808       C  0.61152958  0.90553946  0.83807680    -0.05700
C1809       C  0.55972157  0.88730862  0.83239375     0.00200
C1810       C  0.52485214  0.86853116  0.85447392    -0.08300
C1811       C  0.46759823  0.83982724  0.85011214     0.62100
H1812       H  0.51584447  0.86429682  0.89835837     0.12800
H1813       H  0.63791126  0.91905228  0.82105016     0.12800
C1814       C  0.68390035  0.91716211  0.86898757     0.62300
F1815       F  0.44653376  0.79473888  0.86442940    -0.22800
F1816       F  0.45405485  0.82768677  0.82253493    -0.20200
F1817       F  0.44787166  0.86921172  0.86013331    -0.19800
F1818       F  0.68318293  0.87138901  0.86818287    -0.19900
F1819       F  0.70610816  0.94212667  0.89372625    -0.20200
F1820       F  0.71472427  0.94620077  0.84772395    -0.22900
C1821       C  0.59139895  0.05575853  0.61943164    -0.05700
C1822       C  0.62640067  0.07181090  0.64210072     0.00200
C1823       C  0.67720033  0.08330717  0.63671663    -0.08400
C1824       C  0.69168167  0.08397154  0.60894320    -0.05700
C1825       C  0.65759285  0.07294092  0.58626815     0.00200
C1826       C  0.60560778  0.05541670  0.59184680    -0.08300
C1827       C  0.56473379  0.03635677  0.56915461     0.62100
H1828       H  0.55174159  0.04357054  0.62323598     0.12800
H1829       H  0.73087873  0.09468920  0.60474409     0.12800
C1830       C  0.71619238  0.09437662  0.65967083     0.62300
F1831       F  0.51597905  0.01561517  0.57970407    -0.22800
F1832       F  0.56646335  0.99892304  0.55344970    -0.20200
F1833       F  0.57257288  0.07597382  0.55235063    -0.19800
F1834       F  0.69864283  0.05263935  0.67654411    -0.19900
F1835       F  0.72427228  0.13659108  0.67504244    -0.20200
F1836       F  0.76294871  0.10416582  0.64948671    -0.22900
C1837       C  0.66313181  0.06626349  0.85209085    -0.05700
C1838       C  0.64224687  0.09301733  0.83937767     0.00200
C1839       C  0.63240529  0.12646359  0.85544990    -0.08400
C1840       C  0.63978766  0.12855730  0.88422017    -0.05700
C1841       C  0.66022568  0.10126682  0.89702728     0.00200
C1842       C  0.67447540  0.07174094  0.88055156    -0.08300
C1843       C  0.70298995  0.04735274  0.89292675     0.62100
H1844       H  0.66900748  0.03973758  0.83959745     0.12800
H1845       H  0.63331810  0.15488894  0.89657069     0.12800
C1846       C  0.61575477  0.16176396  0.84318641     0.62300
F1847       F  0.71573258  0.02343253  0.87274094    -0.22800
F1848       F  0.67292173  0.01232512  0.91236020    -0.20200
F1849       F  0.74808592  0.08360884  0.90543640    -0.19800
F1850       F  0.56812845  0.14938918  0.85289959    -0.19900
F1851       F  0.61378881  0.15975075  0.81464103    -0.20200
F1852       F  0.65025873  0.21140027  0.85124458    -0.22900
C1853       C  0.49470918  0.12337231  0.63526103    -0.05700
C1854       C  0.45510368  0.10615530  0.65433971     0.00200
C1855       C  0.40610149  0.09422392  0.64538455    -0.08400
C1856       C  0.39645906  0.09244625  0.61684401    -0.05700
C1857       C  0.43434496  0.10258138  0.59695971     0.00200
C1858       C  0.48575727  0.12126581  0.60657154    -0.08300
C1859       C  0.53340737  0.14439125  0.58887644     0.62100
H1860       H  0.53269677  0.13443825  0.64306443     0.12800
H1861       H  0.35834724  0.08201217  0.60982348     0.12800
C1862       C  0.36436740  0.08231749  0.66613702     0.62300
F1863       F  0.57004580  0.13493173  0.60003796    -0.22800
F1864       F  0.55408118  0.19655020  0.58847502    -0.20200
F1865       F  0.52444201  0.12551494  0.56225219    -0.19800
F1866       F  0.38141496  0.12195120  0.68530379    -0.19900
F1867       F  0.35228788  0.03797731  0.67975097    -0.20200
F1868       F  0.32034361  0.07641720  0.65360584    -0.22900
C1869       C  0.43924139  0.12461670  0.88370117    -0.05700
C1870       C  0.45052953  0.10285795  0.90629541     0.00200
C1871       C  0.46449090  0.06567107  0.90131890    -0.08400
C1872       C  0.46688978  0.05187382  0.87373320    -0.05700
C1873       C  0.45686644  0.07447779  0.85062433     0.00200
C1874       C  0.44297236  0.11206318  0.85598405    -0.08300
C1875       C  0.43338915  0.14019946  0.83310886     0.62100
H1876       H  0.42823910  0.15282895  0.88807769     0.12800
H1877       H  0.47753178  0.02312906  0.87031958     0.12800
C1878       C  0.47795951  0.04152966  0.92486238     0.62300
F1879       F  0.41971217  0.17451498  0.84338460    -0.22800
F1880       F  0.39403533  0.10595410  0.81592777    -0.20200
F1881       F  0.47746785  0.16731875  0.81809514    -0.19800
F1882       F  0.43538055  0.01351813  0.94080882    -0.19900
F1883       F  0.51659624  0.07901028  0.94118761    -0.20200
F1884       F  0.49463045  0.00911019  0.91535660    -0.22900
loop_ 
_geom_bond_atom_site_label_1 
_geom_bond_atom_site_label_2 
_geom_bond_distance 
_geom_bond_site_symmetry_2 
_ccdc_geom_bond_type 
O1          Zr13   2.502       .  S
O1            C3   1.297       .  A
O2          Zr39   2.346   1_545  S
O2            C3   1.270       .  A
C3          C931   1.504       .  S
O4          Zr16   2.475       .  S
O4            C6   1.289       .  A
O5          Zr40   2.364       .  S
O5            C6   1.273       .  A
C6          C816   1.463       .  S
O7          Zr16   2.457       .  S
O7            C9   1.286       .  A
O8          Zr39   2.365       .  S
O8            C9   1.271       .  A
C9          C832   1.457       .  S
O10         Zr13   2.483       .  S
O10          C12   1.293       .  A
O11         Zr40   2.345   1_545  S
O11          C12   1.272       .  A
C12         C912   1.469       .  S
Zr13         O14   2.434       .  S
Zr13         O15   2.437       .  S
Zr13         O19   2.278   1_545  S
Zr13         O43   2.292       .  S
Zr13         O20   2.384   1_545  S
Zr13         O45   2.367       .  S
O14          H57   0.990       .  S
O15          H56   0.990       .  S
O15          H60   0.990       .  S
Zr16         O17   2.439       .  S
Zr16         O18   2.435       .  S
Zr16         O19   2.282       .  S
Zr16         O46   2.295       .  S
Zr16         O20   2.373       .  S
Zr16         O44   2.393       .  S
O17          H58   0.990       .  S
O17          H61   0.990       .  S
O18          H51   0.990       .  S
O19         Zr39   2.255       .  S
O20         Zr40   2.372       .  S
O20          H47   0.966       .  S
O21         Zr33   2.501       .  S
O21          C23   1.295       .  A
O22         Zr40   2.368   1_545  S
O22          C23   1.271       .  A
C23         C880   1.503       .  S
O24         Zr36   2.512       .  S
O24          C26   1.298       .  A
O25         Zr39   2.339       .  S
O25          C26   1.268       .  A
C26         C867   1.481       .  S
O27         Zr36   2.505       .  S
O27          C29   1.298       .  A
O28         Zr40   2.373       .  S
O28          C29   1.274       .  A
C29         C851   1.481       .  S
O30         Zr33   2.477       .  S
O30          C32   1.293       .  A
O31         Zr39   2.372   1_545  S
O31          C32   1.274       .  A
C32         C896   1.465       .  S
Zr33         O34   2.434       .  S
Zr33         O35   2.435       .  S
Zr33         O42   2.296   1_545  S
Zr33         O43   2.286       .  S
Zr33         O41   2.371   1_545  S
Zr33         O45   2.384       .  S
O34          H54   0.990       .  S
O34          H59   0.990       .  S
O35          H55   0.990       .  S
Zr36         O37   2.435       .  S
Zr36         O38   2.434       .  S
Zr36         O42   2.287       .  S
Zr36         O46   2.306       .  S
Zr36         O41   2.369       .  S
Zr36         O44   2.382       .  S
O37          H53   0.990       .  S
O38          H52   0.990       .  S
O38          H62   0.990       .  S
Zr39         O42   2.259       .  S
Zr39         O44   2.369       .  S
Zr39         O45   2.371   1_565  S
Zr40         O43   2.261   1_565  S
Zr40         O46   2.263       .  S
Zr40         O41   2.379       .  S
O41          H49   0.964       .  S
O44          H48   0.966       .  S
O45          H50   0.963       .  S
O63         Zr75   2.504       .  S
O63          C65   1.296       .  A
O64        Zr101   2.329       .  S
O64          C65   1.268       .  A
C65         C800   1.476       .  S
O66         Zr78   2.485       .  S
O66          C68   1.283       .  A
O67        Zr102   2.390       .  S
O67          C68   1.265       .  A
C68         C691   1.508       .  S
O69         Zr78   2.515       .  S
O69          C71   1.301       .  A
O70        Zr101   2.357   1_655  S
O70          C71   1.273       .  A
C71         C707   1.502       .  S
O72         Zr75   2.521       .  S
O72          C74   1.303       .  A
O73        Zr102   2.367       .  S
O73          C74   1.274   1_655  A
C74         C784   1.497       .  S
Zr75         O76   2.435       .  S
Zr75         O77   2.435       .  S
Zr75         O81   2.288   1_455  S
Zr75        O105   2.282       .  S
Zr75         O82   2.353   1_455  S
Zr75        O107   2.389       .  S
O76         H119   0.990       .  S
O77         H118   0.990       .  S
O77         H122   0.990       .  S
Zr78         O79   2.437       .  S
Zr78         O80   2.435       .  S
Zr78         O81   2.282       .  S
Zr78        O108   2.311       .  S
Zr78         O82   2.413       .  S
Zr78        O106   2.387       .  S
O79         H120   0.990       .  S
O79         H123   0.990       .  S
O80         H113   0.990       .  S
O81        Zr101   2.258   1_655  S
O82        Zr102   2.387       .  S
O82         H109   0.963       .  S
O83         Zr95   2.480       .  S
O83          C85   1.294       .  A
O84        Zr102   2.378   1_455  S
O84          C85   1.277       .  A
C85         C755   1.473       .  S
O86         Zr98   2.504       .  S
O86          C88   1.298       .  A
O87        Zr101   2.368   1_655  S
O87          C88   1.274       .  A
C88         C736   1.511       .  S
O89         Zr98   2.500       .  S
O89          C91   1.296       .  A
O90        Zr102   2.353       .  S
O90          C91   1.274       .  A
C91         C720   1.474       .  S
O92         Zr95   2.485       .  S
O92          C94   1.292       .  A
O93        Zr101   2.365       .  S
O93          C94   1.270       .  A
C94         C768   1.480       .  S
Zr95         O96   2.438       .  S
Zr95         O97   2.434       .  S
Zr95        O104   2.281       .  S
Zr95        O105   2.280       .  S
Zr95        O103   2.382   1_455  S
Zr95        O107   2.387       .  S
O96         H116   0.990       .  S
O96         H121   0.990       .  S
O97         H117   0.990       .  S
Zr98         O99   2.433       .  S
Zr98        O100   2.436       .  S
Zr98        O104   2.281   1_655  S
Zr98        O108   2.294       .  S
Zr98        O103   2.390       .  S
Zr98        O106   2.384       .  S
O99         H115   0.990       .  S
O100        H114   0.990       .  S
O100        H124   0.990       .  S
Zr101       O104   2.252       .  S
Zr101       O106   2.374   1_455  S
Zr101       O107   2.376       .  S
Zr102       O105   2.257   1_655  S
Zr102       O108   2.268       .  S
Zr102       O103   2.373       .  S
O103        H111   0.966       .  S
O106        H110   0.966       .  S
O107        H112   0.966       .  S
O125       Zr137   2.524       .  S
O125        C127   1.301       .  A
O126       Zr163   2.340       .  S
O126        C127   1.269       .  A
C127        C643   1.474       .  S
O128       Zr140   2.509       .  S
O128        C130   1.299       .  A
O129       Zr164   2.363       .  S
O129        C130   1.274       .  A
C130        C656   1.500       .  S
O131       Zr140   2.493       .  S
O131        C133   1.283       .  A
O132       Zr163   2.391       .  S
O132        C133   1.265       .  A
C133        C675   1.511       .  S
O134       Zr137   2.492       .  S
O134        C136   1.295       .  A
O135       Zr164   2.386       .  S
O135        C136   1.276       .  A
C136        C624   1.478       .  S
Zr137       O138   2.434       .  S
Zr137       O139   2.440       .  S
Zr137       O143   2.292       .  S
Zr137       O167   2.288       .  S
Zr137       O144   2.400       .  S
Zr137       O169   2.377       .  S
O138        H181   0.990       .  S
O139        H180   0.989       .  S
O139        H184   0.990       .  S
Zr140       O141   2.434       .  S
Zr140       O142   2.434       .  S
Zr140       O143   2.314       .  S
Zr140       O170   2.281       .  S
Zr140       O144   2.385       .  S
Zr140       O168   2.401       .  S
O141        H182   0.989       .  S
O141        H185   0.991       .  S
O142        H175   0.990       .  S
O143       Zr163   2.261       .  S
O144       Zr164   2.381       .  S
O144        H171   0.964       .  S
O145       Zr157   2.492       .  S
O145        C147   1.286       .  A
O146       Zr164   2.367       .  S
O146        C147   1.258       .  A
C147        C595   1.493       .  S
O148       Zr160   2.489       .  S
O148        C150   1.294       .  A
O149       Zr163   2.344       .  S
O149        C150   1.269       .  A
C150        C579   1.457       .  S
O151       Zr160   2.497       .  S
O151        C153   1.296       .  A
O152       Zr164   2.336       .  S
O152        C153   1.269       .  A
C153        C560   1.483       .  S
O154       Zr157   2.485       .  S
O154        C156   1.295       .  A
O155       Zr163   2.381       .  S
O155        C156   1.278       .  A
C156        C611   1.503       .  S
Zr157       O158   2.436       .  S
Zr157       O159   2.434       .  S
Zr157       O166   2.290       .  S
Zr157       O167   2.283       .  S
Zr157       O165   2.384       .  S
Zr157       O169   2.356       .  S
O158        H178   0.990       .  S
O158        H183   0.990       .  S
O159        H179   0.990       .  S
Zr160       O161   2.435       .  S
Zr160       O162   2.441       .  S
Zr160       O166   2.289       .  S
Zr160       O170   2.281       .  S
Zr160       O165   2.371       .  S
Zr160       O168   2.367       .  S
O161        H177   0.991       .  S
O162        H176   0.990       .  S
O162        H186   0.990       .  S
Zr163       O166   2.263       .  S
Zr163       O168   2.385       .  S
Zr163       O169   2.374       .  S
Zr164       O167   2.265       .  S
Zr164       O170   2.258       .  S
Zr164       O165   2.385       .  S
O165        H173   0.967       .  S
O168        H172   0.965       .  S
O169        H174   0.964       .  S
O187       Zr199   2.419       .  S
O187        C189   1.285       .  A
O188       Zr225   2.521       .  S
O188        C189   1.301       .  A
C189       C1202   1.514       .  S
O190       Zr202   2.402       .  S
O190        C192   1.270       .  A
O191       Zr226   2.442       .  S
O191        C192   1.283       .  A
C192        C608   1.488       .  S
O193       Zr202   2.399       .  S
O193        C195   1.269       .  A
O194      Zr1167   2.454       .  S
O194        C195   1.286       .  A
C195        C704   1.500       .  S
O196      Zr1141   2.417       .  S
O196        C198   1.285       .  A
O197       Zr226   2.565       .  S
O197        C198   1.308       .  A
C198        C502   1.541       .  S
Zr199      O1138   2.408       .  S
Zr199       O201   2.435       .  S
Zr199      O1142   2.430       .  S
Zr199       O229   2.355       .  S
Zr199       O231   2.340       .  S
Zr199      O1147   2.361   1_554  S
Zr199      O1148   2.374   1_554  S
O200      Zr1141   2.427       .  S
O200        H243   0.990       .  S
O201        H242   0.990       .  S
O201        H246   0.990       .  S
Zr202       O203   2.438       .  S
Zr202       O204   2.435       .  S
Zr202       O206   2.371       .  S
Zr202       O205   2.363       .  S
Zr202       O230   2.374       .  S
Zr202       O232   2.357       .  S
O203        H244   0.989       .  S
O203        H247   0.990       .  S
O204        H237   0.990       .  S
O205      Zr1141   2.360       .  S
O205      Zr1167   2.376       .  S
O206       Zr226   2.392       .  S
O206      Zr1141   2.367       .  S
O206        H233   0.965       .  S
O207       Zr219   2.388       .  S
O207        C209   1.272       .  A
O208      Zr1168   2.460       .  S
O208        C209   1.293       .  A
C209        C592   1.491       .  S
O210       Zr222   2.581       .  S
O210       C1154   1.314       .  A
O211       Zr225   2.435       .  S
O211        C212   1.295       .  A
C212       O1152   1.312       .  A
C212       C1281   1.538   1_654  S
O213       Zr222   2.606       .  S
O213        C215   1.321       .  A
O214       Zr226   2.421       .  S
O214        C215   1.293       .  A
C215        C395   1.547       .  S
O216       Zr219   2.417       .  S
O216        C218   1.274       .  A
O217       Zr225   2.448       .  S
O217        C218   1.281       .  A
C218        C688   1.504       .  S
Zr219       O220   2.437       .  S
Zr219       O221   2.435       .  S
Zr219       O227   2.384       .  S
Zr219       O228   2.370       .  S
Zr219       O231   2.370       .  S
Zr219       O229   2.394       .  S
O220        H240   0.990       .  S
O220        H245   0.990       .  S
O221        H241   0.990       .  S
Zr222       O224   2.434       .  S
Zr222      O1165   2.435       .  S
Zr222       O232   2.379       .  S
Zr222       O230   2.416       .  S
Zr222      O1170   2.394       .  S
Zr222      O1169   2.384       .  S
O223      Zr1164   2.434       .  S
O223        H239   0.990       .  S
O224        H238   0.990       .  S
O224        H248   0.990       .  S
Zr225      O1136   2.452   1_554  S
Zr225       O228   2.430       .  S
Zr225       O231   2.415       .  S
Zr225      O1147   2.377   1_554  S
Zr225      O1172   2.427   1_554  S
Zr226      O1150   2.467       .  S
Zr226       O232   2.410       .  S
Zr226      O1169   2.427       .  S
Zr226      O1171   2.386       .  S
O227      Zr1164   2.384       .  S
O227      Zr1168   2.430       .  S
O227        H235   0.965       .  S
O228      Zr1164   2.393       .  S
O229      Zr1168   2.389       .  S
O230      Zr1167   2.428       .  S
O230        H234   0.966       .  S
O231        H236   0.960       .  S
O249       Zr261   2.390   1_556  S
O249        C251   1.280       .  A
O250       Zr287   2.559       .  S
O250        C251   1.307       .  A
C251       C1447   1.529   1_556  S
O252       Zr264   2.396       .  S
O252        C254   1.269       .  A
O253       Zr288   2.496       .  S
O253        C254   1.292       .  A
C254        C739   1.513       .  S
O255       Zr264   2.378       .  S
O255        C257   1.275       .  A
O256      Zr1229   2.462       .  S
O256        C257   1.293       .  A
C257        C899   1.463       .  S
O258      Zr1203   2.424       .  S
O258        C260   1.287       .  A
O259       Zr288   2.524       .  S
O259        C260   1.302       .  A
C260       C1131   1.518       .  S
Zr261      O1200   2.421       .  S
Zr261       O263   2.438       .  S
Zr261      O1204   2.435   1_554  S
Zr261       O291   2.325       .  S
Zr261       O293   2.384       .  S
Zr261      O1209   2.348   1_554  S
Zr261      O1210   2.361   1_554  S
O262      Zr1203   2.434       .  S
O262        H305   0.989       .  S
O263        H304   0.989       .  S
O263        H308   0.990       .  S
Zr264       O265   2.438       .  S
Zr264       O266   2.432       .  S
Zr264       O268   2.373       .  S
Zr264       O267   2.367       .  S
Zr264       O292   2.366       .  S
Zr264       O294   2.360       .  S
O265        H306   0.990       .  S
O265        H309   0.990       .  S
O266        H299   0.990       .  S
O267      Zr1203   2.348       .  S
O267      Zr1229   2.378       .  S
O268       Zr288   2.411       .  S
O268      Zr1203   2.359       .  S
O268        H295   0.966       .  S
O269       Zr281   2.372       .  S
O269        C271   1.262       .  A
O270      Zr1230   2.501       .  S
O270        C271   1.290       .  A
C271        C723   1.482       .  S
O272       Zr284   2.593       .  S
O272       C1216   1.316       .  A
O273       Zr287   2.438       .  S
O273        C274   1.296       .  A
C274       O1214   1.317   1_556  A
C274        C404   1.554   1_545  S
O275       Zr284   2.596       .  S
O275        C277   1.319       .  A
O276       Zr288   2.419       .  S
O276        C277   1.292       .  A
C277       C1402   1.541   1_655  S
O278       Zr281   2.398       .  S
O278        C280   1.266       .  A
O279       Zr287   2.447   1_554  S
O279        C280   1.281       .  A
C280        C883   1.498       .  S
Zr281       O282   2.433       .  S
Zr281       O283   2.437       .  S
Zr281       O289   2.383       .  S
Zr281       O290   2.354       .  S
Zr281       O293   2.378       .  S
Zr281       O291   2.366       .  S
O282        H302   0.989       .  S
O282        H307   0.990       .  S
O283        H303   0.990       .  S
Zr284       O286   2.435       .  S
Zr284      O1227   2.433       .  S
Zr284       O294   2.376       .  S
Zr284       O292   2.421       .  S
Zr284      O1232   2.389       .  S
Zr284      O1231   2.422       .  S
O285      Zr1226   2.436       .  S
O285        H301   0.990       .  S
O286        H300   0.990       .  S
O286        H310   0.990       .  S
Zr287      O1198   2.464       .  S
Zr287       O290   2.413   1_556  S
Zr287       O293   2.387   1_556  S
Zr287      O1209   2.378       .  S
Zr287      O1234   2.433       .  S
Zr288      O1212   2.517       .  S
Zr288       O294   2.414       .  S
Zr288      O1231   2.455       .  S
Zr288      O1233   2.355       .  S
O289      Zr1226   2.421       .  S
O289      Zr1230   2.446       .  S
O289        H297   0.966       .  S
O290      Zr1226   2.388       .  S
O291      Zr1230   2.364       .  S
O292      Zr1229   2.427       .  S
O292        H296   0.965       .  S
O293        H298   0.966       .  S
O311       Zr323   2.415       .  S
O311        C313   1.285       .  A
O312       Zr349   2.561       .  S
O312        C313   1.308       .  A
C313        C381   1.538       .  S
O314       Zr326   2.396       .  S
O314        C316   1.268       .  A
O315       Zr350   2.453       .  S
O315        C316   1.284       .  A
C316        C803   1.489       .  S
O317       Zr326   2.389       .  S
O317        C319   1.265       .  A
O318      Zr1291   2.471       .  S
O318        C319   1.289       .  A
C319        C835   1.464       .  S
O320      Zr1265   2.413       .  S
O320        C322   1.285       .  A
O321       Zr350   2.540       .  S
O321        C322   1.304       .  A
C322       C1379   1.526       .  S
Zr323      O1262   2.409       .  S
Zr323       O325   2.433   1_556  S
Zr323      O1266   2.435       .  S
Zr323       O353   2.370   1_556  S
Zr323       O355   2.364   1_556  S
Zr323      O1271   2.361       .  S
Zr323      O1272   2.358       .  S
O324      Zr1265   2.437       .  S
O324        H367   0.990       .  S
O325        H366   0.990       .  S
O325        H370   0.990   1_554  S
Zr326       O327   2.432       .  S
Zr326       O328   2.439       .  S
Zr326       O330   2.384       .  S
Zr326       O329   2.378       .  S
Zr326       O354   2.379       .  S
Zr326       O356   2.374       .  S
O327        H368   0.988       .  S
O327        H371   0.986       .  S
O328        H361   0.990       .  S
O329      Zr1265   2.357       .  S
O329      Zr1291   2.387       .  S
O330       Zr350   2.411       .  S
O330      Zr1265   2.359       .  S
O330        H357   0.962       .  S
O331       Zr343   2.383       .  S
O331        C333   1.275       .  A
O332      Zr1292   2.473   1_554  S
O332        C333   1.295       .  A
C333        C787   1.480       .  S
O334       Zr346   2.595       .  S
O334       C1278   1.318       .  A
O335       Zr349   2.425       .  S
O335        C336   1.295       .  A
C336       O1276   1.320   1_556  A
C336        C528   1.544   1_566  S
O337       Zr346   2.592       .  S
O337        C339   1.318       .  A
O338       Zr350   2.418       .  S
O338        C339   1.291       .  A
C339       C1154   1.540   1_455  S
O340       Zr343   2.392       .  S
O340        C342   1.265       .  A
O341       Zr349   2.466   1_554  S
O341        C342   1.283       .  A
C342        C819   1.470       .  S
Zr343       O344   2.440       .  S
Zr343       O345   2.435       .  S
Zr343       O351   2.368       .  S
Zr343       O352   2.358       .  S
Zr343       O355   2.374       .  S
Zr343       O353   2.358       .  S
O344        H364   0.990       .  S
O344        H369   0.990       .  S
O345        H365   0.990       .  S
Zr346       O348   2.434       .  S
Zr346      O1289   2.433       .  S
Zr346       O356   2.387       .  S
Zr346       O354   2.386       .  S
Zr346      O1294   2.380       .  S
Zr346      O1293   2.396       .  S
O347      Zr1288   2.434   1_554  S
O347        H363   0.990       .  S
O348        H362   0.990       .  S
O348        H372   0.990       .  S
Zr349      O1260   2.467       .  S
Zr349       O352   2.421   1_556  S
Zr349       O355   2.399   1_556  S
Zr349      O1271   2.388       .  S
Zr349      O1296   2.444       .  S
Zr350      O1274   2.473       .  S
Zr350       O356   2.426       .  S
Zr350      O1293   2.409       .  S
Zr350      O1295   2.377       .  S
O351      Zr1288   2.400   1_554  S
O351      Zr1292   2.411   1_554  S
O351        H359   0.964       .  S
O352      Zr1288   2.381   1_554  S
O353      Zr1292   2.374   1_554  S
O354      Zr1291   2.438       .  S
O354        H358   0.964       .  S
O355        H360   0.966       .  S
O373       Zr385   2.360       .  S
O373        C375   1.263       .  A
O374      Zr1353   2.514       .  S
O374        C375   1.304       .  A
C375        C864   1.482       .  S
O376      Zr1330   2.432       .  S
O376        C378   1.290       .  A
O377       Zr412   2.530       .  S
O377        C378   1.301       .  A
C378        C446   1.528       .  S
O379       Zr388   2.415       .  S
O379        C381   1.286       .  A
O380       Zr411   2.560       .  S
O380        C381   1.308       .  A
O382       Zr385   2.385       .  S
O382        C384   1.263       .  A
O383       Zr412   2.467       .  S
O383        C384   1.284       .  A
C384        C640   1.483       .  S
Zr385       O386   2.438       .  S
Zr385       O387   2.435       .  S
Zr385       O391   2.368       .  S
Zr385       O392   2.370       .  S
Zr385       O415   2.377       .  S
Zr385       O417   2.385       .  S
O386        H429   0.990       .  S
O387        H428   0.988       .  S
O387        H432   0.988       .  S
Zr388      O1318   2.420       .  S
Zr388       O390   2.434   1_556  S
Zr388      O1331   2.437       .  S
Zr388       O416   2.351   1_556  S
Zr388       O418   2.365   1_556  S
Zr388      O1334   2.348       .  S
Zr388      O1333   2.376       .  S
O389      Zr1330   2.436       .  S
O389        H430   0.990       .  S
O389        H433   0.989       .  S
O390        H423   0.990       .  S
O391      Zr1330   2.376       .  S
O391      Zr1353   2.370       .  S
O392       Zr412   2.393       .  S
O392      Zr1330   2.346       .  S
O392        H419   0.963       .  S
O393       Zr405   2.598       .  S
O393        C395   1.318       .  A
O394       Zr412   2.424       .  S
O394        C395   1.293       .  A
O396       Zr408   2.395       .  S
O396        C398   1.265       .  A
O397       Zr411   2.445   1_554  S
O397        C398   1.284       .  A
C398        C848   1.476       .  S
O399       Zr408   2.385       .  S
O399        C401   1.275       .  A
O400      Zr1354   2.476       .  S
O400        C401   1.296       .  A
C401        C627   1.472       .  S
O402       Zr405   2.626       .  S
O402       C1346   1.325       .  A
O403       Zr411   2.406       .  S
O403        C404   1.290       .  A
C404       O1344   1.326   1_556  A
Zr405       O407   2.433       .  S
Zr405      O1348   2.435       .  S
Zr405       O417   2.391       .  S
Zr405       O415   2.399       .  S
Zr405      O1355   2.415       .  S
Zr405      O1356   2.368       .  S
O406      Zr1347   2.435       .  S
O406        H426   0.990       .  S
O406        H431   0.990       .  S
O407        H427   0.990       .  S
Zr408       O409   2.435       .  S
Zr408       O410   2.438       .  S
Zr408       O414   2.359       .  S
Zr408       O413   2.371       .  S
Zr408       O418   2.364       .  S
Zr408       O416   2.375       .  S
O409        H425   0.990       .  S
O410        H424   0.990       .  S
O410        H434   0.989       .  S
Zr411      O1316   2.519       .  S
Zr411       O414   2.427   1_556  S
Zr411       O416   2.407   1_556  S
Zr411      O1333   2.370       .  S
Zr411      O1359   2.413       .  S
Zr412      O1342   2.475       .  S
Zr412       O415   2.426       .  S
Zr412      O1355   2.428       .  S
Zr412      O1360   2.383       .  S
O413      Zr1347   2.415       .  S
O413      Zr1354   2.427       .  S
O413        H421   0.966       .  S
O414      Zr1347   2.373       .  S
O416        H420   0.965       .  S
O417      Zr1353   2.415       .  S
O417        H422   0.965       .  S
O418      Zr1354   2.378       .  S
O435       Zr447   2.423       .  S
O435        C437   1.288       .  A
O436       Zr473   2.539       .  S
O436        C437   1.304       .  A
C437       C1264   1.529       .  S
O438       Zr450   2.408       .  S
O438        C440   1.273       .  A
O439       Zr474   2.455       .  S
O439        C440   1.284       .  A
C440        C672   1.507       .  S
O441       Zr450   2.390       .  S
O441        C443   1.267       .  A
O442      Zr1415   2.491       .  S
O442        C443   1.293       .  A
C443        C771   1.482       .  S
O444      Zr1389   2.383       .  S
O444        C446   1.278       .  A
O445       Zr474   2.561       .  S
O445        C446   1.308       .  A
Zr447      O1386   2.393       .  S
Zr447       O449   2.439   1_556  S
Zr447      O1390   2.436       .  S
Zr447       O477   2.366   1_556  S
Zr447       O479   2.337   1_556  S
Zr447      O1395   2.352       .  S
Zr447      O1396   2.360       .  S
O448      Zr1389   2.436       .  S
O448        H491   0.990       .  S
O449        H490   0.990       .  S
O449        H494   0.990       .  S
Zr450       O451   2.442       .  S
Zr450       O452   2.435       .  S
Zr450       O454   2.388       .  S
Zr450       O453   2.379       .  S
Zr450       O478   2.392       .  S
Zr450       O480   2.361       .  S
O451        H492   0.990       .  S
O451        H495   0.989       .  S
O452        H485   0.990       .  S
O453      Zr1389   2.343       .  S
O453      Zr1415   2.375       .  S
O454       Zr474   2.408       .  S
O454      Zr1389   2.362       .  S
O454        H481   0.964       .  S
O455       Zr467   2.378       .  S
O455        C457   1.276       .  A
O456      Zr1416   2.468   1_554  S
O456        C457   1.294       .  A
C457        C659   1.472       .  S
O458       Zr470   2.589       .  S
O458       C1402   1.317       .  A
O459       Zr473   2.443       .  S
O459        C460   1.298   1_556  A
C460       O1400   1.316       .  A
C460       C1219   1.542   1_455  S
O461       Zr470   2.589       .  S
O461        C463   1.316       .  A
O462       Zr474   2.423       .  S
O462        C463   1.292       .  A
C463        C519   1.541       .  S
O464       Zr467   2.361       .  S
O464        C466   1.272       .  A
O465       Zr473   2.484   1_554  S
O465        C466   1.298       .  A
C466        C752   1.461       .  S
Zr467       O468   2.436       .  S
Zr467       O469   2.436       .  S
Zr467       O475   2.350       .  S
Zr467       O476   2.362       .  S
Zr467       O479   2.363       .  S
Zr467       O477   2.359       .  S
O468        H488   0.990       .  S
O468        H493   0.990       .  S
O469        H489   0.990       .  S
Zr470       O472   2.437       .  S
Zr470      O1413   2.434       .  S
Zr470       O480   2.392       .  S
Zr470       O478   2.382       .  S
Zr470      O1418   2.409       .  S
Zr470      O1417   2.399       .  S
O471      Zr1412   2.434   1_554  S
O471        H487   0.990       .  S
O472        H486   0.990       .  S
O472        H496   0.990       .  S
Zr473      O1384   2.493       .  S
Zr473       O476   2.419   1_556  S
Zr473       O479   2.374   1_556  S
Zr473      O1395   2.375       .  S
Zr473      O1420   2.436       .  S
Zr474      O1398   2.454       .  S
Zr474       O480   2.432       .  S
Zr474      O1417   2.424       .  S
Zr474      O1419   2.373       .  S
O475      Zr1412   2.387   1_554  S
O475      Zr1416   2.414   1_554  S
O475        H483   0.965       .  S
O476      Zr1412   2.407   1_554  S
O477      Zr1416   2.373   1_554  S
O478      Zr1415   2.436       .  S
O478        H482   0.965       .  S
O479        H484   0.964       .  S
O497       Zr509   2.394       .  S
O497        C499   1.274       .  A
O498       Zr535   2.475       .  S
O498        C499   1.293       .  A
C499        C928   1.484       .  S
O500       Zr512   2.412       .  S
O500        C502   1.284       .  A
O501       Zr536   2.563       .  S
O501        C502   1.307       .  A
O503      Zr1454   2.422       .  S
O503       C1447   1.287       .  A
O504      Zr1477   2.529   1_556  S
O504       C1447   1.299   1_556  A
C505       O1445   1.287       .  A
C505       O1446   1.298       .  A
C505       C1193   1.522       .  S
O506       Zr509   2.356       .  S
O506        C508   1.270       .  A
O507       Zr536   2.456       .  S
O507        C508   1.291       .  A
C508        C576   1.453       .  S
Zr509       O510   2.438       .  S
Zr509       O511   2.441       .  S
Zr509       O515   2.359       .  S
Zr509       O516   2.383       .  S
Zr509       O539   2.349       .  S
Zr509       O541   2.353       .  S
O510        H553   0.990       .  S
O511        H552   0.989       .  S
O511        H556   0.990       .  S
Zr512      O1445   2.423       .  S
Zr512       O513   2.433       .  S
Zr512      O1456   2.435       .  S
Zr512       O516   2.353       .  S
Zr512       O515   2.356       .  S
Zr512      O1482   2.341       .  S
Zr512      O1484   2.357       .  S
O513        H554   0.989       .  S
O513        H557   0.990       .  S
O514      Zr1454   2.433       .  S
O514        H547   0.990       .  S
O515       Zr535   2.374       .  S
O516       Zr536   2.385       .  S
O516        H543   0.965       .  S
O517       Zr529   2.601       .  S
O517        C519   1.320       .  A
O518       Zr536   2.417       .  S
O518        C519   1.292       .  A
O520       Zr532   2.390       .  S
O520        C522   1.267       .  A
O521      Zr1477   2.448       .  S
O521        C522   1.280       .  A
C522        C915   1.493       .  S
O523       Zr532   2.383       .  S
O523        C525   1.263       .  A
O524      Zr1478   2.483       .  S
O524        C525   1.289       .  A
C525        C563   1.490       .  S
O526       Zr529   2.590       .  S
O526       C1470   1.316       .  A
O527      Zr1477   2.402       .  S
O527        C528   1.288       .  A
C528       O1468   1.318   1_554  A
Zr529       O531   2.435       .  S
Zr529      O1472   2.436       .  S
Zr529       O541   2.411       .  S
Zr529       O539   2.397       .  S
Zr529      O1479   2.388       .  S
Zr529      O1480   2.394       .  S
O530      Zr1471   2.435   1_554  S
O530        H550   0.990       .  S
O530        H555   0.990       .  S
O531        H551   0.990       .  S
Zr532       O533   2.434       .  S
Zr532       O534   2.438       .  S
Zr532       O538   2.371       .  S
Zr532       O537   2.380       .  S
Zr532       O542   2.373       .  S
Zr532       O540   2.383       .  S
O533        H549   0.990       .  S
O534        H548   0.990       .  S
O534        H558   0.987       .  S
Zr535      O1446   2.518       .  S
Zr535      O1463   2.452       .  S
Zr535      O1469   2.408       .  S
Zr535       O541   2.423       .  S
Zr535      O1480   2.441       .  S
Zr535      O1482   2.414       .  S
Zr536      O1466   2.479       .  S
Zr536       O539   2.423       .  S
Zr536      O1479   2.434       .  S
Zr536      O1484   2.371       .  S
O537      Zr1471   2.395   1_554  S
O537      Zr1478   2.436       .  S
O537        H545   0.965       .  S
O538      Zr1471   2.383   1_554  S
O538      Zr1477   2.434       .  S
O540      Zr1454   2.344       .  S
O540      Zr1477   2.408       .  S
O540        H544   0.963       .  S
O541        H546   0.966       .  S
O542      Zr1454   2.364       .  S
O542      Zr1478   2.374       .  S
C559        C560   1.410       .  A
C559        C564   1.406       .  A
C559        H566   1.084       .  S
C560        C561   1.411       .  A
C561        C562   1.409       .  A
C561        C568   1.517       .  S
C562        C563   1.413       .  A
C562        H567   1.083       .  S
C563        C564   1.418       .  A
C564        C565   1.516       .  S
C565        F569   1.385       .  S
C565        F570   1.381       .  S
C565        F571   1.378       .  S
C568        F572   1.381       .  S
C568        F573   1.383       .  S
C568        F574   1.385       .  S
C575        C576   1.406       .  A
C575        C580   1.404       .  A
C575        H582   1.084       .  S
C576        C577   1.417       .  A
C577        C578   1.402       .  A
C577        C584   1.517       .  S
C578        C579   1.400       .  A
C578        H583   1.084       .  S
C579        C580   1.409       .  A
C580        C581   1.518       .  S
C581        F585   1.384       .  S
C581        F586   1.383       .  S
C581        F587   1.378       .  S
C584        F588   1.382       .  S
C584        F589   1.382       .  S
C584        F590   1.381       .  S
C591        C592   1.420       .  A
C591        C596   1.411       .  A
C591        H598   1.081       .  S
C592        C593   1.411       .  A
C593        C594   1.397       .  A
C593        C600   1.519       .  S
C594        C595   1.414       .  A
C594        H599   1.081       .  S
C595        C596   1.410       .  A
C596        C597   1.516       .  S
C597        F601   1.385       .  S
C597        F602   1.383       .  S
C597        F603   1.383       .  S
C600        F604   1.382       .  S
C600        F605   1.384       .  S
C600        F606   1.382       .  S
C607        C608   1.407       .  A
C607        C612   1.401       .  A
C607        H614   1.078       .  S
C608        C609   1.409       .  A
C609        C610   1.412       .  A
C609        C616   1.518       .  S
C610        C611   1.421       .  A
C610        H615   1.080       .  S
C611        C612   1.421       .  A
C612        C613   1.522       .  S
C613        F617   1.385       .  S
C613        F618   1.382       .  S
C613        F619   1.383       .  S
C616        F620   1.380       .  S
C616        F621   1.379       .  S
C616        F622   1.380       .  S
C623        C624   1.404       .  A
C623        C628   1.411       .  A
C623        H630   1.083       .  S
C624        C625   1.416       .  A
C625        C626   1.407       .  A
C625        C632   1.517       .  S
C626        C627   1.402       .  A
C626        H631   1.084       .  S
C627        C628   1.417       .  A
C628        C629   1.518       .  S
C629        F633   1.382       .  S
C629        F634   1.382       .  S
C629        F635   1.383       .  S
C632        F636   1.382       .  S
C632        F637   1.376       .  S
C632        F638   1.385       .  S
C639        C640   1.405       .  A
C639        C644   1.409       .  A
C639        H646   1.080       .  S
C640        C641   1.421       .  A
C641        C642   1.411       .  A
C641        C648   1.520       .  S
C642        C643   1.406       .  A
C642        H647   1.085       .  S
C643        C644   1.416       .  A
C644        C645   1.519       .  S
C645        F649   1.385       .  S
C645        F650   1.380       .  S
C645        F651   1.383       .  S
C648        F652   1.383       .  S
C648        F653   1.381       .  S
C648        F654   1.383       .  S
C655        C656   1.421       .  A
C655        C660   1.406       .  A
C655        H662   1.081       .  S
C656        C657   1.418       .  A
C657        C658   1.408       .  A
C657        C664   1.517       .  S
C658        C659   1.408       .  A
C658        H663   1.084       .  S
C659        C660   1.402       .  A
C660        C661   1.518       .  S
C661        F665   1.379       .  S
C661        F666   1.384       .  S
C661        F667   1.383       .  S
C664        F668   1.382       .  S
C664        F669   1.375       .  S
C664        F670   1.385       .  S
C671        C672   1.418       .  A
C671        C676   1.418       .  A
C671        H678   1.080       .  S
C672        C673   1.419       .  A
C673        C674   1.404       .  A
C673        C680   1.521       .  S
C674        C675   1.411       .  A
C674        H679   1.077       .  S
C675        C676   1.418       .  A
C676        C677   1.518       .  S
C677        F681   1.385       .  S
C677        F682   1.382       .  S
C677        F683   1.383       .  S
C680        F684   1.382       .  S
C680        F685   1.381       .  S
C680        F686   1.383       .  S
C687        C688   1.411       .  A
C687        C692   1.415       .  A
C687        H694   1.080       .  S
C688        C689   1.421       .  A
C689        C690   1.406       .  A
C689        C696   1.518       .  S
C690        C691   1.412       .  A
C690        H695   1.081       .  S
C691        C692   1.422       .  A
C692        C693   1.520       .  S
C693        F697   1.385       .  S
C693        F698   1.380       .  S
C693        F699   1.383       .  S
C696        F700   1.367       .  S
C696        F701   1.374       .  S
C696        F702   1.383       .  S
C703        C704   1.414       .  A
C703        C708   1.410       .  A
C703        H710   1.080       .  S
C704        C705   1.411       .  A
C705        C706   1.411       .  A
C705        C712   1.514       .  S
C706        C707   1.417       .  A
C706        H711   1.083       .  S
C707        C708   1.415       .  A
C708        C709   1.517       .  S
C709        F713   1.385       .  S
C709        F714   1.383       .  S
C709        F715   1.383       .  S
C712        F716   1.382       .  S
C712        F717   1.383       .  S
C712        F718   1.378   1_655  S
C719        C720   1.401       .  A
C719        C724   1.405       .  A
C719        H726   1.085       .  S
C720        C721   1.411       .  A
C721        C722   1.416       .  A
C721        C728   1.517       .  S
C722        C723   1.406       .  A
C722        H727   1.081       .  S
C723        C724   1.426       .  A
C724        C725   1.523       .  S
C725        F729   1.384       .  S
C725        F730   1.382       .  S
C725        F731   1.381       .  S
C728        F732   1.384       .  S
C728        F733   1.383       .  S
C728        F734   1.382       .  S
C735        C736   1.422       .  A
C735        C740   1.413       .  A
C735        H742   1.081       .  S
C736        C737   1.416       .  A
C737        C738   1.412       .  A
C737        C744   1.522       .  S
C738        C739   1.417       .  A
C738        H743   1.073       .  S
C739        C740   1.412       .  A
C740        C741   1.515       .  S
C741        F745   1.383   1_655  S
C741        F746   1.382   1_655  S
C741        F747   1.382       .  S
C744        F748   1.381       .  S
C744        F749   1.383       .  S
C744        F750   1.384       .  S
C751        C752   1.396       .  A
C751        C756   1.401       .  A
C751        H758   1.084       .  S
C752        C753   1.427       .  A
C753        C754   1.405       .  A
C753        C760   1.519       .  S
C754        C755   1.397       .  A
C754        H759   1.085       .  S
C755        C756   1.412       .  A
C756        C757   1.503       .  S
C757        F761   1.383       .  S
C757        F762   1.372   1_455  S
C757        F763   1.384   1_455  S
C760        F764   1.382       .  S
C760        F765   1.382       .  S
C760        F766   1.384       .  S
C767        C768   1.404       .  A
C767        C772   1.406       .  A
C767        H774   1.084       .  S
C768        C769   1.414       .  A
C769        C770   1.410       .  A
C769        C776   1.516       .  S
C770        C771   1.408       .  A
C770        H775   1.083       .  S
C771        C772   1.419       .  A
C772        C773   1.516       .  S
C773        F777   1.383       .  S
C773        F778   1.370       .  S
C773        F779   1.380       .  S
C776        F780   1.383       .  S
C776        F781   1.379       .  S
C776        F782   1.385       .  S
C783        C784   1.420       .  A
C783        C788   1.415       .  A
C783        H790   1.083       .  S
C784        C785   1.414       .  A
C785        C786   1.407       .  A
C785        C792   1.517       .  S
C786        C787   1.410       .  A
C786        H791   1.083       .  S
C787        C788   1.406       .  A
C788        C789   1.522       .  S
C789        F793   1.382       .  S
C789        F794   1.380       .  S
C789        F795   1.383       .  S
C792        F796   1.382       .  S
C792        F797   1.381       .  S
C792        F798   1.385       .  S
C799        C800   1.402       .  A
C799        C804   1.404       .  A
C799        H806   1.087       .  S
C800        C801   1.415       .  A
C801        C802   1.416       .  A
C801        C808   1.514       .  S
C802        C803   1.411       .  A
C802        H807   1.083       .  S
C803        C804   1.420       .  A
C804        C805   1.516       .  S
C805        F809   1.381       .  S
C805        F810   1.382       .  S
C805        F811   1.373       .  S
C808        F812   1.383   1_455  S
C808        F813   1.382       .  S
C808        F814   1.384       .  S
C815        C816   1.402       .  A
C815        C820   1.407       .  A
C815        H822   1.082       .  S
C816        C817   1.403       .  A
C817        C818   1.408       .  A
C817        C824   1.517       .  S
C818        C819   1.405       .  A
C818        H823   1.079       .  S
C819        C820   1.418       .  A
C820        C821   1.518       .  S
C821        F825   1.383       .  S
C821        F826   1.382       .  S
C821        F827   1.380       .  S
C824        F828   1.383       .  S
C824        F829   1.381       .  S
C824        F830   1.383       .  S
C831        C832   1.401       .  A
C831        C836   1.405       .  A
C831        H838   1.084       .  S
C832        C833   1.409       .  A
C833        C834   1.404       .  A
C833        C840   1.522       .  S
C834        C835   1.404       .  A
C834        H839   1.083       .  S
C835        C836   1.416       .  A
C836        C837   1.516       .  S
C837        F841   1.381   1_565  S
C837        F842   1.382       .  S
C837        F843   1.382   1_565  S
C840        F844   1.381       .  S
C840        F845   1.382       .  S
C840        F846   1.384       .  S
C847        C848   1.396       .  A
C847        C852   1.402       .  A
C847        H854   1.083       .  S
C848        C849   1.419       .  A
C849        C850   1.412       .  A
C849        C856   1.518       .  S
C850        C851   1.404       .  A
C850        H855   1.083       .  S
C851        C852   1.417       .  A
C852        C853   1.507       .  S
C853        F857   1.385       .  S
C853        F858   1.377       .  S
C853        F859   1.383       .  S
C856        F860   1.382       .  S
C856        F861   1.381       .  S
C856        F862   1.384       .  S
C863        C864   1.395       .  A
C863        C868   1.397       .  A
C863        H870   1.086       .  S
C864        C865   1.436       .  A
C865        C866   1.416       .  A
C865        C872   1.522       .  S
C866        C867   1.399       .  A
C866        H871   1.083       .  S
C867        C868   1.416       .  A
C868        C869   1.507       .  S
C869        F873   1.385       .  S
C869        F874   1.383       .  S
C869        F875   1.380       .  S
C872        F876   1.380       .  S
C872        F877   1.382       .  S
C872        F878   1.384       .  S
C879        C880   1.419       .  A
C879        C884   1.407       .  A
C879        H886   1.082       .  S
C880        C881   1.414       .  A
C881        C882   1.410       .  A
C881        C888   1.518       .  S
C882        C883   1.415       .  A
C882        H887   1.080       .  S
C883        C884   1.411       .  A
C884        C885   1.519       .  S
C885        F889   1.385   1_545  S
C885        F890   1.373   1_545  S
C885        F891   1.381       .  S
C888        F892   1.382       .  S
C888        F893   1.383       .  S
C888        F894   1.383       .  S
C895        C896   1.400       .  A
C895        C900   1.406       .  A
C895        H902   1.084       .  S
C896        C897   1.417       .  A
C897        C898   1.403       .  A
C897        C904   1.517       .  S
C898        C899   1.402       .  A
C898        H903   1.085       .  S
C899        C900   1.413       .  A
C900        C901   1.514       .  S
C901        F905   1.378       .  S
C901        F906   1.382       .  S
C901        F907   1.380       .  S
C904        F908   1.379       .  S
C904        F909   1.380       .  S
C904        F910   1.383       .  S
C911        C912   1.403       .  A
C911        C916   1.403       .  A
C911        H918   1.084       .  S
C912        C913   1.407       .  A
C913        C914   1.408       .  A
C913        C920   1.516       .  S
C914        C915   1.413       .  A
C914        H919   1.081       .  S
C915        C916   1.419       .  A
C916        C917   1.513       .  S
C917        F921   1.381       .  S
C917        F922   1.373       .  S
C917        F923   1.379       .  S
C920        F924   1.383       .  S
C920        F925   1.383       .  S
C920        F926   1.384       .  S
C927        C928   1.410       .  A
C927        C932   1.409       .  A
C927        H934   1.079       .  S
C928        C929   1.406       .  A
C929        C930   1.406       .  A
C929        C936   1.519       .  S
C930        C931   1.425       .  A
C930        H935   1.081       .  S
C931        C932   1.416       .  A
C932        C933   1.519       .  S
C933        F937   1.385       .  S
C933        F938   1.383       .  S
C933        F939   1.383       .  S
C936        F940   1.383       .  S
C936        F941   1.383       .  S
C936        F942   1.385       .  S
O943       Zr955   2.509       .  S
O943        C945   1.297       .  A
O944       Zr981   2.351   1_545  S
O944        C945   1.270       .  A
C945       C1873   1.511       .  S
O946       Zr958   2.476       .  S
O946        C948   1.289       .  A
O947       Zr982   2.373       .  S
O947        C948   1.274       .  A
C948       C1758   1.468       .  S
O949       Zr958   2.469       .  S
O949        C951   1.288       .  A
O950       Zr981   2.381       .  S
O950        C951   1.273       .  A
C951       C1774   1.467       .  S
O952       Zr955   2.476       .  S
O952        C954   1.292       .  A
O953       Zr982   2.344   1_545  S
O953        C954   1.272       .  A
C954       C1854   1.461       .  S
Zr955       O956   2.436       .  S
Zr955       O957   2.438       .  S
Zr955       O961   2.277   1_545  S
Zr955       O985   2.295       .  S
Zr955       O962   2.385   1_545  S
Zr955       O987   2.368       .  S
O956        H999   0.990       .  S
O957        H998   0.990       .  S
O957       H1002   0.990       .  S
Zr958       O959   2.440       .  S
Zr958       O960   2.435       .  S
Zr958       O961   2.284       .  S
Zr958       O988   2.297       .  S
Zr958       O962   2.380       .  S
Zr958       O986   2.389       .  S
O959       H1000   0.990       .  S
O959       H1003   0.991       .  S
O960        H993   0.991       .  S
O961       Zr981   2.251       .  S
O962       Zr982   2.376       .  S
O962        H989   0.966       .  S
O963       Zr975   2.500       .  S
O963        C965   1.291       .  A
O964       Zr982   2.383   1_545  S
O964        C965   1.271       .  A
C965       C1822   1.511       .  S
O966       Zr978   2.508       .  S
O966        C968   1.298       .  A
O967       Zr981   2.331       .  S
O967        C968   1.267       .  A
C968       C1809   1.476       .  S
O969       Zr978   2.520       .  S
O969        C971   1.301       .  A
O970       Zr982   2.371       .  S
O970        C971   1.274       .  A
C971       C1793   1.486       .  S
O972       Zr975   2.474       .  S
O972        C974   1.292       .  A
O973       Zr981   2.357   1_545  S
O973        C974   1.271       .  A
C974       C1838   1.458       .  S
Zr975       O976   2.435       .  S
Zr975       O977   2.435       .  S
Zr975       O984   2.294   1_545  S
Zr975       O985   2.287       .  S
Zr975       O983   2.374   1_545  S
Zr975       O987   2.390       .  S
O976        H996   0.990       .  S
O976       H1001   0.991       .  S
O977        H997   0.990       .  S
Zr978       O979   2.434       .  S
Zr978       O980   2.434       .  S
Zr978       O984   2.288       .  S
Zr978       O988   2.301       .  S
Zr978       O983   2.362       .  S
Zr978       O986   2.390       .  S
O979        H995   0.990       .  S
O980        H994   0.990       .  S
O980       H1004   0.990       .  S
Zr981       O984   2.263       .  S
Zr981       O986   2.371       .  S
Zr981       O987   2.373   1_565  S
Zr982       O985   2.262   1_565  S
Zr982       O988   2.266       .  S
Zr982       O983   2.379       .  S
O983        H991   0.963       .  S
O986        H990   0.966       .  S
O987        H992   0.964       .  S
O1005     Zr1017   2.496       .  S
O1005      C1007   1.294       .  A
O1006     Zr1043   2.338   1_455  S
O1006      C1007   1.269       .  A
C1007      C1742   1.474       .  S
O1008     Zr1020   2.477       .  S
O1008      C1010   1.280       .  A
O1009     Zr1044   2.397       .  S
O1009      C1010   1.266       .  A
C1010      C1633   1.505       .  S
O1011     Zr1020   2.502       .  S
O1011      C1013   1.297       .  A
O1012     Zr1043   2.350       .  S
O1012      C1013   1.271       .  A
C1013      C1649   1.490       .  S
O1014     Zr1017   2.518       .  S
O1014      C1016   1.302       .  A
O1015     Zr1044   2.372       .  S
O1015      C1016   1.276   1_655  A
C1016      C1726   1.496       .  S
Zr1017     O1018   2.436       .  S
Zr1017     O1019   2.439       .  S
Zr1017     O1023   2.292   1_455  S
Zr1017     O1047   2.282       .  S
Zr1017     O1024   2.356   1_455  S
Zr1017     O1049   2.392       .  S
O1018      H1061   0.990       .  S
O1019      H1060   0.989       .  S
O1019      H1064   0.990       .  S
Zr1020     O1021   2.436       .  S
Zr1020     O1022   2.434       .  S
Zr1020     O1023   2.285       .  S
Zr1020     O1050   2.309       .  S
Zr1020     O1024   2.416       .  S
Zr1020     O1048   2.390       .  S
O1021      H1062   0.990       .  S
O1021      H1065   0.991       .  S
O1022      H1055   0.990       .  S
O1023     Zr1043   2.260       .  S
O1024     Zr1044   2.389       .  S
O1024      H1051   0.963       .  S
O1025     Zr1037   2.481       .  S
O1025      C1027   1.294       .  A
O1026     Zr1044   2.389   1_455  S
O1026      C1027   1.279       .  A
C1027      C1697   1.480       .  S
O1028     Zr1040   2.522       .  S
O1028      C1030   1.301       .  A
O1029     Zr1043   2.364       .  S
O1029      C1030   1.273       .  A
C1030      C1678   1.518       .  S
O1031     Zr1040   2.501       .  S
O1031      C1033   1.297       .  A
O1032     Zr1044   2.354       .  S
O1032      C1033   1.275       .  A
C1033      C1662   1.475       .  S
O1034     Zr1037   2.482       .  S
O1034      C1036   1.293       .  A
O1035     Zr1043   2.367   1_455  S
O1035      C1036   1.273       .  A
C1036      C1710   1.477       .  S
Zr1037     O1038   2.438       .  S
Zr1037     O1039   2.435       .  S
Zr1037     O1046   2.283   1_455  S
Zr1037     O1047   2.278       .  S
Zr1037     O1045   2.382   1_455  S
Zr1037     O1049   2.388       .  S
O1038      H1058   0.990       .  S
O1038      H1063   0.990       .  S
O1039      H1059   0.990       .  S
Zr1040     O1041   2.434       .  S
Zr1040     O1042   2.436       .  S
Zr1040     O1046   2.281       .  S
Zr1040     O1050   2.297       .  S
Zr1040     O1045   2.395       .  S
Zr1040     O1048   2.381       .  S
O1041      H1057   0.990       .  S
O1042      H1056   0.990       .  S
O1042      H1066   0.990       .  S
Zr1043     O1046   2.253       .  S
Zr1043     O1048   2.371       .  S
Zr1043     O1049   2.372   1_655  S
Zr1044     O1047   2.261   1_655  S
Zr1044     O1050   2.268       .  S
Zr1044     O1045   2.377       .  S
O1045      H1053   0.966       .  S
O1048      H1052   0.966       .  S
O1049      H1054   0.966       .  S
O1067     Zr1079   2.515       .  S
O1067      C1069   1.300       .  A
O1068     Zr1105   2.345       .  S
O1068      C1069   1.270       .  A
C1069      C1585   1.472       .  S
O1070     Zr1082   2.518       .  S
O1070      C1072   1.302       .  A
O1071     Zr1106   2.360       .  S
O1071      C1072   1.274       .  A
C1072      C1598   1.498       .  S
O1073     Zr1082   2.493       .  S
O1073      C1075   1.284       .  A
O1074     Zr1105   2.382       .  S
O1074      C1075   1.263       .  A
C1075      C1617   1.508       .  S
O1076     Zr1079   2.479       .  S
O1076      C1078   1.293       .  A
O1077     Zr1106   2.394       .  S
O1077      C1078   1.277       .  A
C1078      C1566   1.477       .  S
Zr1079     O1080   2.436       .  S
Zr1079     O1081   2.434       .  S
Zr1079     O1085   2.287       .  S
Zr1079     O1109   2.286       .  S
Zr1079     O1086   2.393       .  S
Zr1079     O1111   2.381       .  S
O1080      H1123   0.990       .  S
O1081      H1122   0.990       .  S
O1081      H1126   0.990       .  S
Zr1082     O1083   2.434       .  S
Zr1082     O1084   2.435       .  S
Zr1082     O1085   2.310       .  S
Zr1082     O1112   2.280       .  S
Zr1082     O1086   2.377       .  S
Zr1082     O1110   2.400       .  S
O1083      H1124   0.990       .  S
O1083      H1127   0.991       .  S
O1084      H1117   0.990       .  S
O1085     Zr1105   2.259       .  S
O1086     Zr1106   2.374       .  S
O1086      H1113   0.963       .  S
O1087     Zr1099   2.491       .  S
O1087      C1089   1.285       .  A
O1088     Zr1106   2.361       .  S
O1088      C1089   1.254       .  A
C1089      C1537   1.490       .  S
O1090     Zr1102   2.490       .  S
O1090      C1092   1.295       .  A
O1091     Zr1105   2.347       .  S
O1091      C1092   1.269       .  A
C1092      C1521   1.459       .  S
O1093     Zr1102   2.496       .  S
O1093      C1095   1.296       .  A
O1094     Zr1106   2.326       .  S
O1094      C1095   1.269       .  A
C1095      C1502   1.475       .  S
O1096     Zr1099   2.491       .  S
O1096      C1098   1.296       .  A
O1097     Zr1105   2.382       .  S
O1097      C1098   1.278       .  A
C1098      C1553   1.507       .  S
Zr1099     O1100   2.437       .  S
Zr1099     O1101   2.435       .  S
Zr1099     O1108   2.285       .  S
Zr1099     O1109   2.288       .  S
Zr1099     O1107   2.388       .  S
Zr1099     O1111   2.362       .  S
O1100      H1120   0.990       .  S
O1100      H1125   0.990       .  S
O1101      H1121   0.990       .  S
Zr1102     O1103   2.436       .  S
Zr1102     O1104   2.436       .  S
Zr1102     O1108   2.286       .  S
Zr1102     O1112   2.285       .  S
Zr1102     O1107   2.366       .  S
Zr1102     O1110   2.366       .  S
O1103      H1119   0.990       .  S
O1104      H1118   0.990       .  S
O1104      H1128   0.990       .  S
Zr1105     O1108   2.262       .  S
Zr1105     O1110   2.391       .  S
Zr1105     O1111   2.377       .  S
Zr1106     O1109   2.262       .  S
Zr1106     O1112   2.260       .  S
Zr1106     O1107   2.391       .  S
O1107      H1115   0.967       .  S
O1110      H1114   0.965       .  S
O1111      H1116   0.965       .  S
O1129     Zr1141   2.419       .  S
O1129      C1131   1.286       .  A
O1130     Zr1167   2.525       .  S
O1130      C1131   1.302       .  A
O1132     Zr1144   2.394       .  S
O1132      C1134   1.268       .  A
O1133     Zr1168   2.454   1_556  S
O1133      C1134   1.285       .  A
C1134      C1550   1.493       .  S
O1135     Zr1144   2.392       .  S
O1135      C1137   1.267       .  A
O1136      C1137   1.285       .  A
C1137      C1646   1.497       .  S
O1138      C1140   1.283       .  A
O1139     Zr1168   2.558       .  S
O1139      C1140   1.307       .  A
C1140      C1444   1.533       .  S
Zr1141     O1143   2.435       .  S
Zr1141     O1171   2.359       .  S
Zr1141     O1173   2.346       .  S
O1142      H1185   0.990   1_554  S
O1143      H1184   0.990       .  S
O1143      H1188   0.990       .  S
Zr1144     O1145   2.439       .  S
Zr1144     O1146   2.435       .  S
Zr1144     O1148   2.372       .  S
Zr1144     O1147   2.365       .  S
Zr1144     O1172   2.377       .  S
Zr1144     O1174   2.355       .  S
O1145      H1186   0.989       .  S
O1145      H1189   0.990       .  S
O1146      H1179   0.990       .  S
O1148     Zr1168   2.392   1_556  S
O1148      H1175   0.965       .  S
O1149     Zr1161   2.384       .  S
O1149      C1151   1.270       .  A
O1150      C1151   1.293       .  A
C1151      C1534   1.491       .  S
O1152     Zr1164   2.571       .  S
O1153     Zr1167   2.431       .  S
O1153      C1154   1.294       .  A
O1155     Zr1164   2.599       .  S
O1155      C1157   1.319       .  A
O1156     Zr1168   2.413       .  S
O1156      C1157   1.291       .  A
C1157      C1337   1.541       .  S
O1158     Zr1161   2.411       .  S
O1158      C1160   1.273       .  A
O1159     Zr1167   2.453       .  S
O1159      C1160   1.281       .  A
C1160      C1630   1.505       .  S
Zr1161     O1162   2.436       .  S
Zr1161     O1163   2.435       .  S
Zr1161     O1169   2.384       .  S
Zr1161     O1170   2.373       .  S
Zr1161     O1173   2.368       .  S
Zr1161     O1171   2.392       .  S
O1162      H1182   0.990       .  S
O1162      H1187   0.990       .  S
O1163      H1183   0.990       .  S
Zr1164     O1166   2.434   1_554  S
Zr1164     O1174   2.370   1_554  S
Zr1164     O1172   2.418   1_554  S
O1165      H1181   0.990       .  S
O1166      H1180   0.990       .  S
O1166      H1190   0.990       .  S
Zr1167     O1170   2.429       .  S
Zr1167     O1173   2.411       .  S
Zr1168     O1174   2.398   1_554  S
O1169      H1177   0.965       .  S
O1172      H1176   0.966       .  S
O1173      H1178   0.960       .  S
O1191     Zr1203   2.382       .  S
O1191      C1193   1.278       .  A
O1192     Zr1229   2.552       .  S
O1192      C1193   1.306       .  A
O1194     Zr1206   2.400       .  S
O1194      C1196   1.269       .  A
O1195     Zr1230   2.482   1_556  S
O1195      C1196   1.289       .  A
C1196      C1681   1.511       .  S
O1197     Zr1206   2.368       .  S
O1197      C1199   1.273       .  A
O1198      C1199   1.294       .  A
C1199      C1841   1.459       .  S
O1200      C1202   1.286       .  A
O1201     Zr1230   2.521       .  S
O1201      C1202   1.302       .  A
Zr1203     O1205   2.434       .  S
Zr1203     O1233   2.309       .  S
Zr1203     O1235   2.392       .  S
O1204      H1247   0.990       .  S
O1205      H1246   0.990       .  S
O1205      H1250   0.989       .  S
Zr1206     O1207   2.436       .  S
Zr1206     O1208   2.433       .  S
Zr1206     O1210   2.371       .  S
Zr1206     O1209   2.371       .  S
Zr1206     O1234   2.368       .  S
Zr1206     O1236   2.354       .  S
O1207      H1248   0.990       .  S
O1207      H1251   0.990       .  S
O1208      H1241   0.990       .  S
O1210     Zr1230   2.409   1_556  S
O1210      H1237   0.966       .  S
O1211     Zr1223   2.376       .  S
O1211      C1213   1.263       .  A
O1212      C1213   1.294       .  A
C1213      C1665   1.480       .  S
O1214     Zr1226   2.599       .  S
O1215     Zr1229   2.432       .  S
O1215      C1216   1.295       .  A
C1216      C1346   1.551   1_545  S
O1217     Zr1226   2.603       .  S
O1217      C1219   1.321       .  A
O1218     Zr1230   2.412       .  S
O1218      C1219   1.290       .  A
O1220     Zr1223   2.405       .  S
O1220      C1222   1.267       .  A
O1221     Zr1229   2.446       .  S
O1221      C1222   1.280       .  A
C1222      C1825   1.501       .  S
Zr1223     O1224   2.435       .  S
Zr1223     O1225   2.436       .  S
Zr1223     O1231   2.388       .  S
Zr1223     O1232   2.348       .  S
Zr1223     O1235   2.384       .  S
Zr1223     O1233   2.361       .  S
O1224      H1244   0.990       .  S
O1224      H1249   0.990       .  S
O1225      H1245   0.990       .  S
Zr1226     O1228   2.436   1_554  S
Zr1226     O1236   2.374   1_554  S
Zr1226     O1234   2.421   1_554  S
O1227      H1243   0.990       .  S
O1228      H1242   0.990       .  S
O1228      H1252   0.990       .  S
Zr1229     O1232   2.417       .  S
Zr1229     O1235   2.393       .  S
Zr1230     O1236   2.415   1_554  S
O1231      H1239   0.966       .  S
O1234      H1238   0.966       .  S
O1235      H1240   0.966       .  S
O1253     Zr1265   2.420       .  S
O1253      C1255   1.286       .  A
O1254     Zr1291   2.541       .  S
O1254      C1255   1.303       .  A
C1255      C1323   1.531       .  S
O1256     Zr1268   2.399       .  S
O1256      C1258   1.270       .  A
O1257     Zr1292   2.454       .  S
O1257      C1258   1.285       .  A
C1258      C1745   1.488       .  S
O1259     Zr1268   2.397       .  S
O1259      C1261   1.265       .  A
O1260      C1261   1.289       .  A
C1261      C1777   1.466       .  S
O1262      C1264   1.284       .  A
O1263     Zr1292   2.546       .  S
O1263      C1264   1.305       .  A
Zr1265     O1267   2.429       .  S
Zr1265     O1295   2.372       .  S
Zr1265     O1297   2.361       .  S
O1266      H1309   0.990       .  S
O1267      H1308   0.989       .  S
O1267      H1312   0.990       .  S
Zr1268     O1269   2.431       .  S
Zr1268     O1270   2.435       .  S
Zr1268     O1272   2.385       .  S
Zr1268     O1271   2.379       .  S
Zr1268     O1296   2.376       .  S
Zr1268     O1298   2.375       .  S
O1269      H1310   0.988       .  S
O1269      H1313   0.988       .  S
O1270      H1303   0.990       .  S
O1272     Zr1292   2.409       .  S
O1272      H1299   0.961       .  S
O1273     Zr1285   2.389       .  S
O1273      C1275   1.276       .  A
O1274      C1275   1.295       .  A
C1275      C1729   1.481       .  S
O1276     Zr1288   2.604   1_554  S
O1277     Zr1291   2.415       .  S
O1277      C1278   1.293       .  A
C1278      C1470   1.537   1_565  S
O1279     Zr1288   2.599   1_554  S
O1279      C1281   1.319   1_554  A
O1280     Zr1292   2.405       .  S
O1280      C1281   1.288       .  A
O1282     Zr1285   2.393       .  S
O1282      C1284   1.266       .  A
O1283     Zr1291   2.469       .  S
O1283      C1284   1.284       .  A
C1284      C1761   1.473       .  S
Zr1285     O1286   2.439       .  S
Zr1285     O1287   2.435       .  S
Zr1285     O1293   2.368       .  S
Zr1285     O1294   2.361       .  S
Zr1285     O1297   2.373       .  S
Zr1285     O1295   2.359       .  S
O1286      H1306   0.990       .  S
O1286      H1311   0.990       .  S
O1287      H1307   0.990       .  S
Zr1288     O1290   2.433       .  S
Zr1288     O1298   2.385       .  S
Zr1288     O1296   2.390       .  S
O1289      H1305   0.991       .  S
O1290      H1304   0.990       .  S
O1290      H1314   0.990       .  S
Zr1291     O1294   2.416       .  S
Zr1291     O1297   2.399       .  S
Zr1292     O1298   2.429       .  S
O1293      H1301   0.964       .  S
O1296      H1300   0.964       .  S
O1297      H1302   0.966       .  S
O1315     Zr1327   2.360       .  S
O1315      C1317   1.263       .  A
O1316      C1317   1.305       .  A
C1317      C1806   1.482       .  S
O1318      C1320   1.287       .  A
O1319     Zr1354   2.528   1_556  S
O1319      C1320   1.301       .  A
C1320      C1388   1.523       .  S
O1321     Zr1330   2.401       .  S
O1321      C1323   1.283       .  A
O1322     Zr1353   2.558       .  S
O1322      C1323   1.308       .  A
O1324     Zr1327   2.386       .  S
O1324      C1326   1.264       .  A
O1325     Zr1354   2.457   1_556  S
O1325      C1326   1.281       .  A
C1326      C1582   1.482       .  S
Zr1327     O1328   2.430       .  S
Zr1327     O1329   2.427       .  S
Zr1327     O1333   2.374       .  S
Zr1327     O1334   2.371       .  S
Zr1327     O1357   2.371       .  S
Zr1327     O1359   2.382       .  S
O1328      H1371   0.990       .  S
O1329      H1370   0.987       .  S
O1329      H1374   0.987       .  S
Zr1330     O1332   2.435       .  S
Zr1330     O1358   2.363       .  S
Zr1330     O1360   2.357       .  S
O1331      H1372   0.990       .  S
O1331      H1375   0.990       .  S
O1332      H1365   0.990       .  S
O1334     Zr1354   2.399   1_556  S
O1334      H1361   0.963       .  S
O1335     Zr1347   2.592       .  S
O1335      C1337   1.317       .  A
O1336     Zr1354   2.420       .  S
O1336      C1337   1.292       .  A
O1338     Zr1350   2.406       .  S
O1338      C1340   1.267       .  A
O1339     Zr1353   2.461       .  S
O1339      C1340   1.287       .  A
C1340      C1790   1.478       .  S
O1341     Zr1350   2.377       .  S
O1341      C1343   1.274       .  A
O1342      C1343   1.296       .  A
C1343      C1569   1.469       .  S
O1344     Zr1347   2.630       .  S
O1345     Zr1353   2.400       .  S
O1345      C1346   1.289       .  A
Zr1347     O1349   2.435   1_554  S
Zr1347     O1359   2.386   1_554  S
Zr1347     O1357   2.401   1_554  S
O1348      H1368   0.990       .  S
O1348      H1373   0.990       .  S
O1349      H1369   0.990       .  S
Zr1350     O1351   2.435       .  S
Zr1350     O1352   2.438       .  S
Zr1350     O1356   2.351       .  S
Zr1350     O1355   2.376       .  S
Zr1350     O1360   2.368       .  S
Zr1350     O1358   2.372       .  S
O1351      H1367   0.990       .  S
O1352      H1366   0.990       .  S
O1352      H1376   0.990       .  S
Zr1353     O1356   2.421       .  S
Zr1353     O1358   2.409       .  S
Zr1354     O1357   2.430   1_554  S
O1355      H1363   0.966       .  S
O1358      H1362   0.965       .  S
O1359      H1364   0.964       .  S
O1377     Zr1389   2.417       .  S
O1377      C1379   1.286       .  A
O1378     Zr1415   2.535       .  S
O1378      C1379   1.303       .  A
O1380     Zr1392   2.405       .  S
O1380      C1382   1.272       .  A
O1381     Zr1416   2.451       .  S
O1381      C1382   1.284       .  A
C1382      C1614   1.506       .  S
O1383     Zr1392   2.392       .  S
O1383      C1385   1.268       .  A
O1384      C1385   1.294       .  A
C1385      C1713   1.486       .  S
O1386      C1388   1.281       .  A
O1387     Zr1416   2.542       .  S
O1387      C1388   1.304       .  A
Zr1389     O1391   2.437       .  S
Zr1389     O1419   2.364       .  S
Zr1389     O1421   2.341       .  S
O1390      H1433   0.990       .  S
O1391      H1432   0.990       .  S
O1391      H1436   0.990       .  S
Zr1392     O1393   2.439       .  S
Zr1392     O1394   2.434       .  S
Zr1392     O1396   2.389       .  S
Zr1392     O1395   2.378       .  S
Zr1392     O1420   2.384       .  S
Zr1392     O1422   2.362       .  S
O1393      H1434   0.990       .  S
O1393      H1437   0.989       .  S
O1394      H1427   0.990       .  S
O1396     Zr1416   2.409       .  S
O1396      H1423   0.964       .  S
O1397     Zr1409   2.384       .  S
O1397      C1399   1.277       .  A
O1398      C1399   1.291       .  A
C1399      C1601   1.469       .  S
O1400     Zr1412   2.585   1_554  S
O1401     Zr1415   2.434       .  S
O1401      C1402   1.296       .  A
O1403     Zr1412   2.601   1_554  S
O1403      C1405   1.319   1_554  A
O1404     Zr1416   2.403       .  S
O1404      C1405   1.288       .  A
C1405      C1461   1.539   1_556  S
O1406     Zr1409   2.376       .  S
O1406      C1408   1.275       .  A
O1407     Zr1415   2.488       .  S
O1407      C1408   1.299       .  A
C1408      C1694   1.469       .  S
Zr1409     O1410   2.437       .  S
Zr1409     O1411   2.435       .  S
Zr1409     O1417   2.356       .  S
Zr1409     O1418   2.366       .  S
Zr1409     O1421   2.360       .  S
Zr1409     O1419   2.358       .  S
O1410      H1430   0.990       .  S
O1410      H1435   0.990       .  S
O1411      H1431   0.990       .  S
Zr1412     O1414   2.434       .  S
Zr1412     O1422   2.392       .  S
Zr1412     O1420   2.391       .  S
O1413      H1429   0.990       .  S
O1414      H1428   0.990       .  S
O1414      H1438   0.990       .  S
Zr1415     O1418   2.422       .  S
Zr1415     O1421   2.370       .  S
Zr1416     O1422   2.432       .  S
O1417      H1425   0.965       .  S
O1420      H1424   0.965       .  S
O1421      H1426   0.964       .  S
O1439     Zr1451   2.400       .  S
O1439      C1441   1.275       .  A
O1440     Zr1477   2.463   1_556  S
O1440      C1441   1.290       .  A
C1441      C1870   1.484       .  S
O1442     Zr1454   2.417       .  S
O1442      C1444   1.286       .  A
O1443     Zr1478   2.546       .  S
O1443      C1444   1.305       .  A
O1448     Zr1451   2.372       .  S
O1448      C1450   1.273       .  A
O1449     Zr1478   2.449   1_556  S
O1449      C1450   1.290       .  A
C1450      C1518   1.453       .  S
Zr1451     O1452   2.442       .  S
Zr1451     O1453   2.441       .  S
Zr1451     O1457   2.359       .  S
Zr1451     O1458   2.380       .  S
Zr1451     O1481   2.357       .  S
Zr1451     O1483   2.364       .  S
O1452      H1495   0.990       .  S
O1453      H1494   0.989       .  S
O1453      H1498   0.990       .  S
Zr1454     O1455   2.438   1_554  S
Zr1454     O1458   2.348   1_554  S
Zr1454     O1457   2.347   1_554  S
O1455      H1496   0.990       .  S
O1455      H1499   0.989       .  S
O1456      H1489   0.990       .  S
O1457     Zr1477   2.371   1_556  S
O1458     Zr1478   2.387   1_556  S
O1458      H1485   0.966       .  S
O1459     Zr1471   2.588       .  S
O1459      C1461   1.317   1_556  A
O1460     Zr1478   2.432       .  S
O1460      C1461   1.296       .  A
O1462     Zr1474   2.377       .  S
O1462      C1464   1.267       .  A
O1463      C1464   1.276       .  A
C1464      C1857   1.495       .  S
O1465     Zr1474   2.379       .  S
O1465      C1467   1.263       .  A
O1466      C1467   1.291       .  A
C1467      C1505   1.484       .  S
O1468     Zr1471   2.602       .  S
O1469      C1470   1.290       .  A
Zr1471     O1473   2.434       .  S
Zr1471     O1483   2.405       .  S
Zr1471     O1481   2.408       .  S
O1472      H1492   0.990       .  S
O1472      H1497   0.990       .  S
O1473      H1493   0.990       .  S
Zr1474     O1475   2.434       .  S
Zr1474     O1476   2.436       .  S
Zr1474     O1480   2.371       .  S
Zr1474     O1479   2.391       .  S
Zr1474     O1484   2.372       .  S
Zr1474     O1482   2.388       .  S
O1475      H1491   0.990       .  S
O1476      H1490   0.989       .  S
O1476      H1500   0.990       .  S
Zr1477     O1483   2.427   1_554  S
Zr1478     O1481   2.428   1_554  S
O1479      H1487   0.965       .  S
O1482      H1486   0.960       .  S
O1483      H1488   0.966       .  S
C1501      C1502   1.409       .  A
C1501      C1506   1.404       .  A
C1501      H1508   1.084       .  S
C1502      C1503   1.408       .  A
C1503      C1504   1.407       .  A
C1503      C1510   1.516       .  S
C1504      C1505   1.414       .  A
C1504      H1509   1.083       .  S
C1505      C1506   1.417       .  A
C1506      C1507   1.517       .  S
C1507      F1511   1.383       .  S
C1507      F1512   1.382       .  S
C1507      F1513   1.375       .  S
C1510      F1514   1.382       .  S
C1510      F1515   1.384       .  S
C1510      F1516   1.384       .  S
C1517      C1518   1.402       .  A
C1517      C1522   1.403       .  A
C1517      H1524   1.085       .  S
C1518      C1519   1.418       .  A
C1519      C1520   1.401       .  A
C1519      C1526   1.517       .  S
C1520      C1521   1.400       .  A
C1520      H1525   1.085       .  S
C1521      C1522   1.412       .  A
C1522      C1523   1.517       .  S
C1523      F1527   1.385       .  S
C1523      F1528   1.383       .  S
C1523      F1529   1.379       .  S
C1526      F1530   1.382       .  S
C1526      F1531   1.382       .  S
C1526      F1532   1.382       .  S
C1533      C1534   1.421       .  A
C1533      C1538   1.409       .  A
C1533      H1540   1.081       .  S
C1534      C1535   1.410       .  A
C1535      C1536   1.397       .  A
C1535      C1542   1.520       .  S
C1536      C1537   1.417       .  A
C1536      H1541   1.081       .  S
C1537      C1538   1.408       .  A
C1538      C1539   1.517       .  S
C1539      F1543   1.385       .  S
C1539      F1544   1.383       .  S
C1539      F1545   1.383       .  S
C1542      F1546   1.381       .  S
C1542      F1547   1.382       .  S
C1542      F1548   1.384       .  S
C1549      C1550   1.409       .  A
C1549      C1554   1.404       .  A
C1549      H1556   1.077       .  S
C1550      C1551   1.408       .  A
C1551      C1552   1.413       .  A
C1551      C1558   1.517       .  S
C1552      C1553   1.423       .  A
C1552      H1557   1.080       .  S
C1553      C1554   1.422       .  A
C1554      C1555   1.523       .  S
C1555      F1559   1.385       .  S
C1555      F1560   1.382       .  S
C1555      F1561   1.383       .  S
C1558      F1562   1.378       .  S
C1558      F1563   1.380       .  S
C1558      F1564   1.376       .  S
C1565      C1566   1.405       .  A
C1565      C1570   1.410       .  A
C1565      H1572   1.083       .  S
C1566      C1567   1.417       .  A
C1567      C1568   1.407       .  A
C1567      C1574   1.518       .  S
C1568      C1569   1.404       .  A
C1568      H1573   1.084       .  S
C1569      C1570   1.413       .  A
C1570      C1571   1.518       .  S
C1571      F1575   1.381       .  S
C1571      F1576   1.382       .  S
C1571      F1577   1.382       .  S
C1574      F1578   1.383       .  S
C1574      F1579   1.378       .  S
C1574      F1580   1.385       .  S
C1581      C1582   1.407       .  A
C1581      C1586   1.406       .  A
C1581      H1588   1.082       .  S
C1582      C1583   1.424       .  A
C1583      C1584   1.410       .  A
C1583      C1590   1.522       .  S
C1584      C1585   1.405       .  A
C1584      H1589   1.085       .  S
C1585      C1586   1.415       .  A
C1586      C1587   1.518       .  S
C1587      F1591   1.384       .  S
C1587      F1592   1.382       .  S
C1587      F1593   1.379       .  S
C1590      F1594   1.382       .  S
C1590      F1595   1.382       .  S
C1590      F1596   1.379       .  S
C1597      C1598   1.420       .  A
C1597      C1602   1.409       .  A
C1597      H1604   1.083       .  S
C1598      C1599   1.416       .  A
C1599      C1600   1.406       .  A
C1599      C1606   1.514       .  S
C1600      C1601   1.406       .  A
C1600      H1605   1.084       .  S
C1601      C1602   1.405       .  A
C1602      C1603   1.520       .  S
C1603      F1607   1.380       .  S
C1603      F1608   1.384       .  S
C1603      F1609   1.383       .  S
C1606      F1610   1.383       .  S
C1606      F1611   1.379       .  S
C1606      F1612   1.385       .  S
C1613      C1614   1.417       .  A
C1613      C1618   1.416       .  A
C1613      H1620   1.079       .  S
C1614      C1615   1.418       .  A
C1615      C1616   1.406       .  A
C1615      C1622   1.520       .  S
C1616      C1617   1.411       .  A
C1616      H1621   1.077       .  S
C1617      C1618   1.414       .  A
C1618      C1619   1.515       .  S
C1619      F1623   1.385       .  S
C1619      F1624   1.382       .  S
C1619      F1625   1.383       .  S
C1622      F1626   1.382       .  S
C1622      F1627   1.382       .  S
C1622      F1628   1.382       .  S
C1629      C1630   1.412       .  A
C1629      C1634   1.416       .  A
C1629      H1636   1.081       .  S
C1630      C1631   1.420       .  A
C1631      C1632   1.404       .  A
C1631      C1638   1.517       .  S
C1632      C1633   1.410       .  A
C1632      H1637   1.081       .  S
C1633      C1634   1.422       .  A
C1634      C1635   1.521       .  S
C1635      F1639   1.385       .  S
C1635      F1640   1.380       .  S
C1635      F1641   1.383       .  S
C1638      F1642   1.369       .  S
C1638      F1643   1.373       .  S
C1638      F1644   1.384       .  S
C1645      C1646   1.416       .  A
C1645      C1650   1.410       .  A
C1645      H1652   1.080       .  S
C1646      C1647   1.411       .  A
C1647      C1648   1.406       .  A
C1647      C1654   1.514       .  S
C1648      C1649   1.412       .  A
C1648      H1653   1.084       .  S
C1649      C1650   1.413       .  A
C1650      C1651   1.518       .  S
C1651      F1655   1.385       .  S
C1651      F1656   1.383       .  S
C1651      F1657   1.382       .  S
C1654      F1658   1.382       .  S
C1654      F1659   1.382       .  S
C1654      F1660   1.380   1_655  S
C1661      C1662   1.402       .  A
C1661      C1666   1.405       .  A
C1661      H1668   1.085       .  S
C1662      C1663   1.411       .  A
C1663      C1664   1.415       .  A
C1663      C1670   1.514       .  S
C1664      C1665   1.405       .  A
C1664      H1669   1.080       .  S
C1665      C1666   1.426       .  A
C1666      C1667   1.522       .  S
C1667      F1671   1.384       .  S
C1667      F1672   1.382       .  S
C1667      F1673   1.380       .  S
C1670      F1674   1.384       .  S
C1670      F1675   1.383       .  S
C1670      F1676   1.382       .  S
C1677      C1678   1.425       .  A
C1677      C1682   1.414       .  A
C1677      H1684   1.081       .  S
C1678      C1679   1.418       .  A
C1679      C1680   1.413       .  A
C1679      C1686   1.520       .  S
C1680      C1681   1.415       .  A
C1680      H1685   1.074       .  S
C1681      C1682   1.412       .  A
C1682      C1683   1.517       .  S
C1683      F1687   1.384   1_655  S
C1683      F1688   1.383   1_655  S
C1683      F1689   1.383       .  S
C1686      F1690   1.381       .  S
C1686      F1691   1.383       .  S
C1686      F1692   1.385       .  S
C1693      C1694   1.396       .  A
C1693      C1698   1.404       .  A
C1693      H1700   1.084       .  S
C1694      C1695   1.427       .  A
C1695      C1696   1.407       .  A
C1695      C1702   1.517       .  S
C1696      C1697   1.397       .  A
C1696      H1701   1.085       .  S
C1697      C1698   1.414       .  A
C1698      C1699   1.503       .  S
C1699      F1703   1.383       .  S
C1699      F1704   1.374   1_455  S
C1699      F1705   1.384   1_455  S
C1702      F1706   1.382       .  S
C1702      F1707   1.383       .  S
C1702      F1708   1.384       .  S
C1709      C1710   1.403       .  A
C1709      C1714   1.408       .  A
C1709      H1716   1.084       .  S
C1710      C1711   1.413       .  A
C1711      C1712   1.410       .  A
C1711      C1718   1.517       .  S
C1712      C1713   1.409       .  A
C1712      H1717   1.083       .  S
C1713      C1714   1.420       .  A
C1714      C1715   1.516       .  S
C1715      F1719   1.382       .  S
C1715      F1720   1.372       .  S
C1715      F1721   1.381       .  S
C1718      F1722   1.383       .  S
C1718      F1723   1.380       .  S
C1718      F1724   1.384       .  S
C1725      C1726   1.419       .  A
C1725      C1730   1.415       .  A
C1725      H1732   1.083       .  S
C1726      C1727   1.414       .  A
C1727      C1728   1.407       .  A
C1727      C1734   1.517       .  S
C1728      C1729   1.410       .  A
C1728      H1733   1.084       .  S
C1729      C1730   1.406       .  A
C1730      C1731   1.521       .  S
C1731      F1735   1.382       .  S
C1731      F1736   1.381       .  S
C1731      F1737   1.384       .  S
C1734      F1738   1.382       .  S
C1734      F1739   1.380       .  S
C1734      F1740   1.385       .  S
C1741      C1742   1.399       .  A
C1741      C1746   1.402       .  A
C1741      H1748   1.087       .  S
C1742      C1743   1.414       .  A
C1743      C1744   1.416       .  A
C1743      C1750   1.515       .  S
C1744      C1745   1.412       .  A
C1744      H1749   1.083       .  S
C1745      C1746   1.422       .  A
C1746      C1747   1.516       .  S
C1747      F1751   1.383       .  S
C1747      F1752   1.372       .  S
C1747      F1753   1.381       .  S
C1750      F1754   1.383   1_455  S
C1750      F1755   1.383       .  S
C1750      F1756   1.384       .  S
C1757      C1758   1.401       .  A
C1757      C1762   1.407       .  A
C1757      H1764   1.082       .  S
C1758      C1759   1.408       .  A
C1759      C1760   1.409       .  A
C1759      C1766   1.517       .  S
C1760      C1761   1.405       .  A
C1760      H1765   1.080       .  S
C1761      C1762   1.417       .  A
C1762      C1763   1.516       .  S
C1763      F1767   1.382       .  S
C1763      F1768   1.381       .  S
C1763      F1769   1.380       .  S
C1766      F1770   1.383       .  S
C1766      F1771   1.382       .  S
C1766      F1772   1.384       .  S
C1773      C1774   1.402       .  A
C1773      C1778   1.406       .  A
C1773      H1780   1.083       .  S
C1774      C1775   1.411       .  A
C1775      C1776   1.404       .  A
C1775      C1782   1.518       .  S
C1776      C1777   1.403       .  A
C1776      H1781   1.084       .  S
C1777      C1778   1.416       .  A
C1778      C1779   1.517       .  S
C1779      F1783   1.381   1_565  S
C1779      F1784   1.382       .  S
C1779      F1785   1.384   1_565  S
C1782      F1786   1.378       .  S
C1782      F1787   1.383       .  S
C1782      F1788   1.385       .  S
C1789      C1790   1.394       .  A
C1789      C1794   1.400       .  A
C1789      H1796   1.083       .  S
C1790      C1791   1.423       .  A
C1791      C1792   1.417       .  A
C1791      C1798   1.521       .  S
C1792      C1793   1.406       .  A
C1792      H1797   1.083       .  S
C1793      C1794   1.418       .  A
C1794      C1795   1.509       .  S
C1795      F1799   1.385       .  S
C1795      F1800   1.376       .  S
C1795      F1801   1.382       .  S
C1798      F1802   1.382       .  S
C1798      F1803   1.381       .  S
C1798      F1804   1.384       .  S
C1805      C1806   1.396       .  A
C1805      C1810   1.396       .  A
C1805      H1812   1.086       .  S
C1806      C1807   1.437       .  A
C1807      C1808   1.415       .  A
C1807      C1814   1.524       .  S
C1808      C1809   1.398       .  A
C1808      H1813   1.083       .  S
C1809      C1810   1.417       .  A
C1810      C1811   1.509       .  S
C1811      F1815   1.384       .  S
C1811      F1816   1.382       .  S
C1811      F1817   1.381       .  S
C1814      F1818   1.377       .  S
C1814      F1819   1.383       .  S
C1814      F1820   1.385       .  S
C1821      C1822   1.418       .  A
C1821      C1826   1.406       .  A
C1821      H1828   1.081       .  S
C1822      C1823   1.420       .  A
C1823      C1824   1.413       .  A
C1823      C1830   1.519       .  S
C1824      C1825   1.416       .  A
C1824      H1829   1.081       .  S
C1825      C1826   1.413       .  A
C1826      C1827   1.521       .  S
C1827      F1831   1.385       .  S
C1827      F1832   1.380   1_545  S
C1827      F1833   1.380       .  S
C1830      F1834   1.383       .  S
C1830      F1835   1.382       .  S
C1830      F1836   1.386       .  S
C1837      C1838   1.398       .  A
C1837      C1842   1.404       .  A
C1837      H1844   1.084       .  S
C1838      C1839   1.416       .  A
C1839      C1840   1.403       .  A
C1839      C1846   1.517       .  S
C1840      C1841   1.403       .  A
C1840      H1845   1.085       .  S
C1841      C1842   1.412       .  A
C1842      C1843   1.513       .  S
C1843      F1847   1.376       .  S
C1843      F1848   1.383       .  S
C1843      F1849   1.380       .  S
C1846      F1850   1.380       .  S
C1846      F1851   1.381       .  S
C1846      F1852   1.383       .  S
C1853      C1854   1.400       .  A
C1853      C1858   1.406       .  A
C1853      H1860   1.085       .  S
C1854      C1855   1.400       .  A
C1855      C1856   1.404       .  A
C1855      C1862   1.517       .  S
C1856      C1857   1.415       .  A
C1856      H1861   1.081       .  S
C1857      C1858   1.432       .  A
C1858      C1859   1.523       .  S
C1859      F1863   1.382       .  S
C1859      F1864   1.381       .  S
C1859      F1865   1.371       .  S
C1862      F1866   1.384       .  S
C1862      F1867   1.383       .  S
C1862      F1868   1.384       .  S
C1869      C1870   1.409       .  A
C1869      C1874   1.410       .  A
C1869      H1876   1.081       .  S
C1870      C1871   1.406       .  A
C1871      C1872   1.406       .  A
C1871      C1878   1.520       .  S
C1872      C1873   1.426       .  A
C1872      H1877   1.081       .  S
C1873      C1874   1.419       .  A
C1874      C1875   1.518       .  S
C1875      F1879   1.386       .  S
C1875      F1880   1.382       .  S
C1875      F1881   1.383       .  S
C1878      F1882   1.382       .  S
C1878      F1883   1.383       .  S
C1878      F1884   1.385       .  S
