geometry optimzed in LAMMPS
_audit_creation_date              2020-11-30 
_audit_creation_method            'lammps2cif' 
_symmetry_space_group_name_H-M    'P1' 
_symmetry_Int_Tables_number       1 
_symmetry_cell_setting            triclinic 
loop_ 
_symmetry_equiv_pos_as_xyz 
  x,y,z 
_cell_length_a                    34.52736978 
_cell_length_b                    31.823321183161102 
_cell_length_c                    21.937847017730515 
_cell_angle_alpha                 84.52941585721615 
_cell_angle_beta                  80.90297207832333 
_cell_angle_gamma                 96.39613179886018 
loop_ 
_atom_site_label 
_atom_site_type_symbol 
_atom_site_fract_x 
_atom_site_fract_y 
_atom_site_fract_z 
_atom_site_charge 
N1          N  0.36361897  0.35939938  0.05011589     0.01000
C2          C  0.33909585  0.38197240  0.08395642     0.03600
C3          C  0.30124808  0.37390224  0.07217476    -0.19200
C4          C  0.30227744  0.34214741  0.03361046    -0.19500
C5          C  0.33953223  0.32855412  0.03074404     0.03500
H6          H  0.27497039  0.38490050  0.09580431     0.17300
H7          H  0.27578243  0.32328591  0.02573743     0.17400
N8          N  0.43858275  0.44105738  0.92315127     0.01000
C9          C  0.39971764  0.42831633  0.20310334     0.03600
C10         C  0.42891788  0.45399031  0.16180975    -0.19200
C11         C  0.46022378  0.46088391  0.19188145    -0.19500
C12         C  0.47490992  0.46274302  0.92110897     0.03500
H13         H  0.42783678  0.46554592  0.11414284     0.17300
H14         H  0.48781037  0.48070069  0.17345116     0.17400
N15         N  0.39292209  0.12548544  0.17524969     0.01000
C16         C  0.38840615  0.09282146  0.22146487     0.03600
C17         C  0.34949649  0.07439984  0.23377795    -0.19200
C18         C  0.32983280  0.09669779  0.19355958    -0.19500
C19         C  0.35707855  0.12873880  0.15817667     0.03500
H20         H  0.33615885  0.04976588  0.27099313     0.17300
H21         H  0.29802006  0.09366788  0.19637300     0.17400
N22         N  0.50081090  0.11230380  0.02164342     0.01000
C23         C  0.49828022  0.13825664  0.06714956     0.03600
C24         C  0.53289996  0.14318035  0.09057043    -0.19200
C25         C  0.06185007  0.11900560  0.05315748    -0.19500
C26         C  0.53646197  0.09721567  0.01995504     0.03500
H27         H  0.53787922  0.15843726  0.13119619     0.17300
H28         H  0.08886777  0.11010643  0.06693022     0.17400
N29         N  0.19353056  0.32024920  0.21335277     0.01000
C30         C  0.18427262  0.34784928  0.25547733     0.04800
C31         C  0.21805146  0.36831577  0.27066287    -0.19200
C32         C  0.24918729  0.35239108  0.23759925    -0.19500
C33         C  0.23365594  0.32215230  0.20326496     0.03500
H34         H  0.13622977  0.21290728  0.02592858     0.17300
H35         H  0.27978783  0.35907408  0.24314476     0.17400
N36         N  0.10247442  0.33394154  0.06820567     0.01000
C37         C  0.10427565  0.30907753  0.12139207     0.03600
C38         C  0.06905814  0.30451538  0.16201991    -0.19200
C39         C  0.04483306  0.32862434  0.13433083    -0.19500
C40         C  0.06650916  0.34869322  0.07828531     0.03500
H41         H  0.06330964  0.28982870  0.20970413     0.17300
H42         H  0.01696256  0.33639847  0.15779588     0.17400
O43         O  0.48916276  0.45507636  0.02374246    -0.67300
O44         O  0.06087206  0.47974051  0.13401633    -0.67500
O45         O  0.01902084  0.02603723  0.06347661    -0.67300
O46         O  0.03182570  0.40889061  0.09099524    -0.67300
O47         O  0.06238816  0.40516034  0.34283679    -0.67300
O48         O  0.04329484  0.02227320  0.30756211    -0.67300
O49         O  0.08787791  0.98087796  0.37902389    -0.67300
O50         O  0.01382981  0.44466258  0.27768080    -0.67500
V51         V  0.02599655  0.46747503  0.07707826     1.35200
V52         V  0.05076527  0.46173258  0.32856440     1.35200
C53         C  0.50161918  0.45857307  0.96619588     0.82000
C54         C  0.09811085  0.99003813  0.11360818     0.82000
C55         C  0.04153574  0.05076749  0.02049391     0.81900
C56         C  0.05947025  0.39336073  0.05899066     0.81900
O57         O  0.35045765  0.28132692  0.11380601    -0.67300
O58         O  0.29385647  0.20731078  0.25153968    -0.67500
O59         O  0.35563226  0.20176637  0.16594281    -0.67300
O60         O  0.28970061  0.28619766  0.20178282    -0.67300
O61         O  0.24826837  0.26193336  0.14483618    -0.67300
O62         O  0.31457548  0.17349027  0.11136606    -0.67300
O63         O  0.25287446  0.18210416  0.19421963    -0.67300
O64         O  0.31023633  0.25587073  0.05578642    -0.67500
V65         V  0.32174260  0.24357705  0.18165469     1.35200
V66         V  0.28273476  0.21885208  0.12655941     1.35200
C67         C  0.33610067  0.28521904  0.06436763     0.82000
C68         C  0.26379930  0.18224953  0.24620737     0.82000
C69         C  0.34365001  0.17033255  0.14013567     0.81900
C70         C  0.25778064  0.28868216  0.18118985     0.81900
N71         N  0.15419746  0.03458147  0.14766326     0.01000
C72         C  0.16286874  0.04192990  0.20417367     0.03600
C73         C  0.13939664  0.01353651  0.24974714    -0.19200
C74         C  0.11481343  0.98829904  0.22066030    -0.19500
C75         C  0.12405156  0.00226312  0.15814300     0.03500
H76         H  0.14008034  0.01243832  0.29872257     0.17300
H77         H  0.09377925  0.45851331  0.24261695     0.17400
N78         N  0.21053093  0.12525467  0.30176171     0.01000
C79         C  0.19600264  0.11388034  0.36258510     0.03600
C80         C  0.21773520  0.13575589  0.39961956    -0.19200
C81         C  0.24682077  0.16232972  0.35995768    -0.19500
C82         C  0.24126811  0.15581707  0.30060567     0.03500
H83         H  0.21350940  0.13180408  0.44986040     0.17300
H84         H  0.26971970  0.18417736  0.37241054     0.17400
C85         C  0.18017659  0.04551058  0.09108337    -0.08800
C86         C  0.16572007  0.07979847  0.38803038    -0.10300
C87         C  0.18708936  0.07822662  0.21985954    -0.08800
C88         C  0.19999562  0.10301366  0.25274020    -0.10300
C89         C  0.14078286  0.30298952  0.14390493    -0.08800
C90         C  0.16733381  0.30654008  0.17392562    -0.10300
C91         C  0.14609319  0.34609986  0.29514961    -0.08800
C92         C  0.11790736  0.31857110  0.01190334    -0.10300
C93         C  0.42925113  0.14006222  0.13634539    -0.08800
C94         C  0.46089620  0.14481724  0.10235427    -0.10300
C95         C  0.44078246  0.08259119  0.29824680    -0.08800
C96         C  0.41766936  0.08456806  0.26150573    -0.10300
C97         C  0.34868232  0.39742248  0.14021150    -0.08800
C98         C  0.36581265  0.40918852  0.18067078    -0.10300
C99         C  0.39480859  0.38364449  0.00713380    -0.08800
C100        C  0.41734627  0.40878412  0.96888534    -0.10300
N101        N  0.33781359  0.36732268  0.41671588     0.01000
C102        C  0.32264235  0.39716606  0.44978760     0.03600
C103        C  0.28202531  0.39059006  0.46007043    -0.19200
C104        C  0.27195540  0.35335866  0.43627992    -0.19500
C105        C  0.30693731  0.33705269  0.41650147     0.03500
H106        H  0.26226845  0.40636101  0.49101290     0.17300
H107        H  0.24281535  0.33510447  0.44787223     0.17400
N108        N  0.41160607  0.41899359  0.25867875     0.01000
C109        C  0.40101407  0.44280257  0.54978103     0.03600
C110        C  0.42837432  0.47268950  0.51184718    -0.19200
C111        C  0.46160322  0.47501779  0.53827214    -0.19500
C112        C  0.44938645  0.43907833  0.25065336     0.03500
H113        H  0.42462908  0.49054435  0.46908903     0.17300
H114        H  0.48786276  0.49765191  0.52311637     0.17400
N115        N  0.42214931  0.16686932  0.51641304     0.01000
C116        C  0.44708924  0.16643894  0.55892663     0.03600
C117        C  0.45094525  0.20514219  0.58197234    -0.19200
C118        C  0.42750054  0.23004007  0.55344689    -0.19500
C119        C  0.40925330  0.20572542  0.51409293     0.03500
H120        H  0.46686861  0.21340702  0.61877131     0.17300
H121        H  0.42076326  0.26085507  0.56592371     0.17400
N122        N  0.46794849  0.08765305  0.34024688     0.01000
C123        C  0.47209550  0.12480691  0.36489869     0.03600
C124        C  0.51145894  0.13934612  0.36293709    -0.19200
C125        C  0.03753880  0.11247215  0.34299540    -0.19500
C126        C  0.50505437  0.07643303  0.32894599     0.03500
H127        H  0.52318029  0.16547860  0.38569644     0.17300
H128        H  0.06732195  0.10822214  0.34983453     0.17400
N129        N  0.16040597  0.25302914  0.54241612     0.01000
C130        C  0.13492226  0.24585253  0.59717950     0.04800
C131        C  0.13437346  0.20489235  0.62402427    -0.19200
C132        C  0.16115442  0.18670154  0.58472032    -0.19500
C133        C  0.17813710  0.21748057  0.53564931     0.03500
H134        H  0.21981109  0.38941791  0.30629994     0.17300
H135        H  0.17210915  0.15690569  0.59656464     0.17400
N136        N  0.08916091  0.32675887  0.39111103     0.01000
C137        C  0.09213042  0.29620705  0.43645290     0.03600
C138        C  0.05695793  0.28636620  0.47749479    -0.19200
C139        C  0.03172055  0.31307610  0.45795800    -0.19500
C140        C  0.05255081  0.33854010  0.40573026     0.03500
H141        H  0.05179626  0.26584514  0.52107058     0.17300
H142        H  0.00319964  0.31710473  0.48374704     0.17400
O143        O  0.46523817  0.44151636  0.35273675    -0.67300
O144        O  0.04303478  0.46617874  0.45826521    -0.67500
O145        O  0.99538511  0.01485050  0.38642115    -0.67300
O146        O  0.01346509  0.39442822  0.42037484    -0.67300
O147        O  0.06778447  0.39603108  0.67526375    -0.67300
O148        O  0.05391134  0.01897389  0.63853072    -0.67300
O149        O  0.09793160  0.97524387  0.70917353    -0.67300
O150        O  0.02185555  0.44162659  0.61158553    -0.67500
V151        V  0.00567377  0.45220370  0.40562087     1.35200
V152        V  0.06098053  0.45482333  0.66130356     1.35200
C153        C  0.47688800  0.44171872  0.29531058     0.82000
C154        C  0.07661562  0.98023746  0.43678159     0.82000
C155        C  0.01583633  0.03768697  0.33931780     0.81900
C156        C  0.04181722  0.38065274  0.38752332     0.81900
O157        O  0.30270282  0.28801055  0.50635556    -0.67300
O158        O  0.28719824  0.17583635  0.59008934    -0.67500
O159        O  0.34986313  0.23284659  0.54222573    -0.67300
O160        O  0.24071179  0.23220744  0.55985961    -0.67300
O161        O  0.23999488  0.21158518  0.46858439    -0.67300
O162        O  0.35144905  0.19942881  0.46040501    -0.67300
O163        O  0.28163180  0.15016448  0.50309612    -0.67300
O164        O  0.30872355  0.26189833  0.41781315    -0.67500
V165        V  0.29532047  0.23180183  0.54762854     1.35200
V166        V  0.29578166  0.20658752  0.46340604     1.35200
C167        C  0.30745134  0.29391434  0.44750282     0.82000
C168        C  0.28000455  0.14402471  0.56088149     0.82000
C169        C  0.36899041  0.21340540  0.50295015     0.81900
C170        C  0.22137595  0.22132521  0.51895215     0.81900
N171        N  0.13401281  0.02092012  0.47561230     0.01000
C172        C  0.15146892  0.01676821  0.52673440     0.03600
C173        C  0.13433394  0.97970594  0.56356533    -0.19200
C174        C  0.10491829  0.96144080  0.53443588    -0.19500
C175        C  0.10507260  0.98771803  0.48037339     0.03500
H176        H  0.14257398  0.96704358  0.60650419     0.17300
H177        H  0.08902224  0.43007553  0.54985202     0.17400
N178        N  0.23439810  0.07862680  0.60794051     0.01000
C179        C  0.23168079  0.05849184  0.66552719     0.03600
C180        C  0.26647050  0.06563200  0.68807554    -0.19200
C181        C  0.29178264  0.09234060  0.64285272    -0.19500
C182        C  0.27123298  0.10120022  0.59472119     0.03500
H183        H  0.27145178  0.05635304  0.73470974     0.17300
H184        H  0.31996802  0.10874140  0.64861704     0.17400
C185        C  0.14734335  0.05179888  0.42502010    -0.08800
C186        C  0.19516681  0.04310503  0.70550041    -0.10300
C187        C  0.18292270  0.04675061  0.54289958    -0.08800
C188        C  0.20786579  0.06589158  0.56759698    -0.10300
C189        C  0.12845033  0.28662546  0.45492334    -0.08800
C190        C  0.14849318  0.27413743  0.49109622    -0.10300
C191        C  0.11737637  0.27857863  0.63059611    -0.08800
C192        C  0.11841349  0.34017555  0.33794329    -0.10300
C193        C  0.42929225  0.14688150  0.46231014    -0.08800
C194        C  0.44326994  0.13512016  0.41402413    -0.10300
C195        C  0.47631185  0.10783467  0.62581991    -0.08800
C196        C  0.46216975  0.12948062  0.58786748    -0.10300
C197        C  0.34362807  0.41555592  0.49429094    -0.08800
C198        C  0.36572646  0.42682769  0.52854065    -0.10300
C199        C  0.36611592  0.38127143  0.36202710    -0.08800
C200        C  0.38812595  0.39717283  0.31421194    -0.10300
N201        N  0.34808148  0.37308039  0.76093939     0.01000
C202        C  0.33738305  0.40470174  0.79432510     0.03600
C203        C  0.29752795  0.39906816  0.81663907    -0.19200
C204        C  0.28316747  0.36128092  0.79833353    -0.19500
C205        C  0.31523863  0.34396298  0.76852905     0.03500
H206        H  0.28177996  0.41688326  0.84992956     0.17300
H207        H  0.25426910  0.34401103  0.81742842     0.17400
N208        N  0.41588592  0.42622102  0.59935902     0.01000
C209        C  0.42460370  0.45937774  0.87416089     0.03600
C210        C  0.45097357  0.49276475  0.84241754    -0.19200
C211        C  0.48305837  0.49494726  0.87213991    -0.19500
C212        C  0.45381798  0.44564505  0.59055904     0.03500
H213        H  0.44723462  0.51303333  0.80186972     0.17300
H214        H  0.50914958  0.51833524  0.86036307     0.17400
N215        N  0.43144938  0.17243397  0.84779436     0.01000
C216        C  0.45500238  0.17757201  0.89159816     0.03600
C217        C  0.45917135  0.21916306  0.90402105    -0.19200
C218        C  0.43678314  0.24018807  0.86780956    -0.19500
C219        C  0.41805632  0.21057461  0.83562330     0.03500
H220        H  0.47472098  0.23224764  0.93847612     0.17300
H221        H  0.42964239  0.27212717  0.87265806     0.17400
N222        N  0.49403661  0.09304041  0.67686608     0.01000
C223        C  0.49693158  0.11984627  0.72062598     0.03600
C224        C  0.53444270  0.12552914  0.73439114    -0.19200
C225        C  0.05288133  0.10630260  0.68787163    -0.19500
C226        C  0.52935845  0.07688737  0.66927017     0.03500
H227        H  0.54430586  0.14335421  0.76996619     0.17300
H228        H  0.08209180  0.09889008  0.69345076     0.17400
N229        N  0.16784770  0.26282845  0.88557307     0.01000
C230        C  0.14724029  0.26111690  0.94413936     0.04800
C231        C  0.14821217  0.22251724  0.97732059    -0.19200
C232        C  0.17111930  0.20018876  0.93831709    -0.19500
C233        C  0.18503960  0.22642563  0.88290483     0.03500
H234        H  0.11904244  0.19104210  0.66963407     0.17300
H235        H  0.18249599  0.17124653  0.95327040     0.17400
N236        N  0.08776545  0.31426605  0.72707291     0.01000
C237        C  0.09010101  0.29043916  0.78041901     0.03600
C238        C  0.05485507  0.28465969  0.82109668    -0.19200
C239        C  0.02994424  0.30757083  0.79321168    -0.19500
C240        C  0.05152111  0.32796253  0.73736394     0.03500
H241        H  0.04939039  0.26983451  0.86869196     0.17300
H242        H  0.00185996  0.31483774  0.81660150     0.17400
O243        O  0.47289463  0.44299426  0.68965110    -0.67300
O244        O  0.05509219  0.45988790  0.79103498    -0.67500
O245        O  0.00779367  0.01454799  0.71928012    -0.67300
O246        O  0.01989845  0.38971442  0.75393986    -0.67300
O247        O  0.08159899  0.41792005  0.01524435    -0.67300
O248        O  0.06875740  0.03545511  0.98730973    -0.67300
O249        O  0.11095456  0.98999477  0.05642717    -0.67300
O250        O  0.03849805  0.46602649  0.94723756    -0.67500
V251        V  0.01672096  0.44888187  0.73925800     1.35200
V252        V  0.07352059  0.47717982  0.00357849     1.35200
C253        C  0.48288418  0.44275723  0.63212271     0.82000
C254        C  0.08741053  0.97544252  0.76718677     0.82000
C255        C  0.02829841  0.03640234  0.67142862     0.81900
C256        C  0.04563835  0.37274353  0.72001817     0.81900
O257        O  0.31668234  0.28973250  0.85011656    -0.67300
O258        O  0.28889689  0.17502563  0.92430428    -0.67500
O259        O  0.35625817  0.22534841  0.88138060    -0.67300
O260        O  0.24980840  0.24028309  0.89854075    -0.67300
O261        O  0.24412588  0.21492814  0.81144305    -0.67300
O262        O  0.35742987  0.20732301  0.78823934    -0.67300
O263        O  0.28993023  0.15365320  0.83290874    -0.67300
O264        O  0.31061295  0.26917680  0.76005848    -0.67500
V265        V  0.30299997  0.23215492  0.88641371     1.35200
V266        V  0.30078706  0.21187872  0.79928731     1.35200
C267        C  0.31602934  0.29913653  0.79277306     0.82000
C268        C  0.28504059  0.14480766  0.89097699     0.82000
C269        C  0.37553637  0.21405835  0.83363156     0.81900
C270        C  0.22805990  0.22833026  0.86118612     0.81900
N271        N  0.14575121  0.01454569  0.80523910     0.01000
C272        C  0.15879329  0.01374555  0.86054667     0.03600
C273        C  0.13830517  0.97969560  0.90057294    -0.19200
C274        C  0.11129278  0.95968164  0.86904218    -0.19500
C275        C  0.11587549  0.98228129  0.81087527     0.03500
H276        H  0.14299638  0.97006660  0.94714476     0.17300
H277        H  0.09202382  0.43016310  0.89166704     0.17400
N278        N  0.23982320  0.08068855  0.94077279     0.01000
C279        C  0.23989730  0.06115664  0.99812970     0.03600
C280        C  0.27724049  0.06547268  0.01298906    -0.19200
C281        C  0.30108469  0.08977969  0.96336072    -0.19500
C282        C  0.27725667  0.10056206  0.92052398     0.03500
H283        H  0.28530423  0.05666712  0.05777517     0.17300
H284        H  0.33087761  0.10448620  0.96373469     0.17400
C285        C  0.16944895  0.03153835  0.74905567    -0.08800
C286        C  0.20526342  0.05161663  0.04527230    -0.10300
C287        C  0.18958953  0.04386182  0.87752700    -0.08800
C288        C  0.21333245  0.06424119  0.90280165    -0.10300
C289        C  0.12653011  0.28401934  0.80174081    -0.08800
C290        C  0.14967592  0.27688413  0.83596294    -0.10300
C291        C  0.13104763  0.29648866  0.97301679    -0.08800
C292        C  0.10363987  0.29933779  0.67072989    -0.10300
C293        C  0.44438657  0.14961536  0.79850747    -0.08800
C294        C  0.46396517  0.13445821  0.75775690    -0.10300
C295        C  0.48473501  0.12472561  0.96783831    -0.08800
C296        C  0.47090042  0.14405430  0.92720459    -0.10300
C297        C  0.36493999  0.42858271  0.82424984    -0.08800
C298        C  0.39013596  0.44325077  0.85092709    -0.10300
C299        C  0.37383996  0.38478830  0.70299905    -0.08800
C300        C  0.39410216  0.40148858  0.65404353    -0.10300
N301        N  0.36046421  0.86862560  0.05903170     0.01000
C302        C  0.33656025  0.89227622  0.09208749     0.03600
C303        C  0.29818910  0.88313714  0.08328773    -0.19200
C304        C  0.29830668  0.85024440  0.04683713    -0.19500
C305        C  0.33599106  0.83755001  0.04105896     0.03500
H306        H  0.27228733  0.89418393  0.10807933     0.17300
H307        H  0.27153901  0.83064726  0.04168859     0.17400
N308        N  0.43761062  0.94343894  0.92613478     0.01000
C309        C  0.39762412  0.93800157  0.21186102     0.03600
C310        C  0.42768809  0.96328599  0.17158817    -0.19200
C311        C  0.46004254  0.96469517  0.19989830    -0.19500
C312        C  0.47514355  0.96276645  0.92121749     0.03500
H313        H  0.42673636  0.97734194  0.12499239     0.17300
H314        H  0.48864244  0.98260984  0.18155931     0.17400
N315        N  0.39948501  0.63525094  0.16736748     0.01000
C316        C  0.39565324  0.60174794  0.21210440     0.03600
C317        C  0.35752126  0.58126840  0.22233668    -0.19200
C318        C  0.33746585  0.60311476  0.18236593    -0.19500
C319        C  0.36362271  0.63705684  0.14943830     0.03500
H320        H  0.34484599  0.55533550  0.25794333     0.17300
H321        H  0.30572928  0.59843877  0.18416885     0.17400
N322        N  0.50430744  0.61398420  0.01757259     0.01000
C323        C  0.50382654  0.64227037  0.05990818     0.03600
C324        C  0.53907330  0.64683618  0.08166981    -0.19200
C325        C  0.05788580  0.61871187  0.05773332    -0.19500
C326        C  0.53934087  0.59771973  0.01566555     0.03500
H327        H  0.54561523  0.66390416  0.11997021     0.17300
H328        H  0.08491580  0.61024335  0.07197163     0.17400
N329        N  0.19090795  0.81992195  0.22107236     0.01000
C330        C  0.18077142  0.84641284  0.26448718     0.04800
C331        C  0.21392078  0.86545332  0.28329843    -0.19200
C332        C  0.24556313  0.84993011  0.25103783    -0.19500
C333        C  0.23094204  0.82125644  0.21361705     0.03500
H334        H  0.13608039  0.71261237  0.02712051     0.17300
H335        H  0.27583935  0.85604236  0.25854581     0.17400
N336        N  0.10224086  0.83373207  0.07193387     0.01000
C337        C  0.10353984  0.80883051  0.12530366     0.03600
C338        C  0.06804255  0.80442976  0.16523180    -0.19200
C339        C  0.04417555  0.82864988  0.13685178    -0.19500
C340        C  0.06628006  0.84847646  0.08099858     0.03500
H341        H  0.06187872  0.78983413  0.21296856     0.17300
H342        H  0.01618068  0.83654681  0.15963728     0.17400
O343        O  0.48913777  0.95464859  0.02404630    -0.67300
O344        O  0.06141799  0.98020708  0.13283628    -0.67500
O345        O  0.01787128  0.52585088  0.06519395    -0.67300
O346        O  0.03178429  0.90890634  0.09175256    -0.67300
O347        O  0.05904658  0.90714951  0.34274281    -0.67300
O348        O  0.04139221  0.51859193  0.30925746    -0.67300
O349        O  0.08932961  0.47997137  0.37784655    -0.67300
O350        O  0.01375097  0.94898561  0.27461561    -0.67500
V351        V  0.02645365  0.96752599  0.07650883     1.35200
V352        V  0.04993764  0.96455933  0.32762911     1.35200
C353        C  0.50182168  0.95906132  0.96645806     0.82000
C354        C  0.09762008  0.48939993  0.11488158     0.82000
C355        C  0.04004387  0.55111908  0.02244566     0.81900
C356        C  0.05936307  0.89291220  0.06038000     0.81900
O357        O  0.34865639  0.78883575  0.12108959    -0.67300
O358        O  0.29508242  0.70655173  0.25155795    -0.67500
O359        O  0.35817718  0.70846582  0.16428569    -0.67300
O360        O  0.28735074  0.78619771  0.21051958    -0.67300
O361        O  0.24763494  0.76412030  0.14957949    -0.67300
O362        O  0.31810794  0.68047293  0.10796637    -0.67300
O363        O  0.25475506  0.68315658  0.19201898    -0.67300
O364        O  0.31048536  0.76369546  0.05984834    -0.67500
V365        V  0.32169146  0.74689287  0.18521074     1.35200
V366        V  0.28397305  0.72332628  0.12741824     1.35200
C367        C  0.33456556  0.79368383  0.07149284     0.82000
C368        C  0.26526759  0.68169950  0.24441528     0.82000
C369        C  0.34777624  0.67791946  0.13560889     0.81900
C370        C  0.25580615  0.78908656  0.18909573     0.81900
N371        N  0.15566708  0.53066920  0.14889017     0.01000
C372        C  0.16705838  0.53507119  0.20455157     0.03600
C373        C  0.14389259  0.50594705  0.24974513    -0.19200
C374        C  0.11662078  0.48369926  0.22123798    -0.19500
C375        C  0.12422563  0.49989608  0.15941128     0.03500
H376        H  0.14627763  0.50240908  0.29834639     0.17300
H377        H  0.09227625  0.96273262  0.24218323     0.17400
N378        N  0.21323703  0.62207954  0.29907301     0.01000
C379        C  0.19571869  0.61333084  0.35919266     0.03600
C380        C  0.21284818  0.63976032  0.39625628    -0.19200
C381        C  0.24219522  0.66642963  0.35744962    -0.19500
C382        C  0.24165282  0.65532049  0.29828922     0.03500
H383        H  0.20528613  0.63900159  0.44617834     0.17300
H384        H  0.26147415  0.69200424  0.37029463     0.17400
C385        C  0.18014914  0.54271279  0.09121440    -0.08800
C386        C  0.16690587  0.57793083  0.38503226    -0.10300
C387        C  0.19199598  0.57097511  0.22038521    -0.08800
C388        C  0.20484420  0.59733959  0.25123976    -0.10300
C389        C  0.13971350  0.80294429  0.14893899    -0.08800
C390        C  0.16562893  0.80652000  0.18015252    -0.10300
C391        C  0.14172830  0.84531381  0.30121598    -0.08800
C392        C  0.11837166  0.81879015  0.01574922    -0.10300
C393        C  0.43573543  0.64931172  0.12787676    -0.08800
C394        C  0.46740444  0.65232608  0.09418930    -0.10300
C395        C  0.44766217  0.59127274  0.28929765    -0.08800
C396        C  0.42489410  0.59360776  0.25213358    -0.10300
C397        C  0.34689873  0.90892522  0.14706055    -0.08800
C398        C  0.36378478  0.92067438  0.18772549    -0.10300
C399        C  0.39220010  0.89102517  0.01512245    -0.08800
C400        C  0.41535744  0.91392333  0.97481835    -0.10300
N401        N  0.33480716  0.87189736  0.42227735     0.01000
C402        C  0.32047916  0.90063601  0.45843963     0.03600
C403        C  0.27983479  0.89449274  0.46978699    -0.19200
C404        C  0.26899976  0.85855169  0.44341780    -0.19500
C405        C  0.30359020  0.84237179  0.42098109     0.03500
H406        H  0.26063718  0.90914097  0.50316173     0.17300
H407        H  0.23977879  0.84046314  0.45500362     0.17400
N408        N  0.40993767  0.92399157  0.26537837     0.01000
C409        C  0.40295984  0.93582510  0.55540090     0.03600
C410        C  0.43092080  0.96308138  0.51443258    -0.19200
C411        C  0.46427937  0.96579039  0.54031619    -0.19500
C412        C  0.44892187  0.94017292  0.25666778     0.03500
H413        H  0.42701348  0.98003480  0.47110755     0.17300
H414        H  0.49044349  0.98821402  0.52412732     0.17400
N415        N  0.41961943  0.67138751  0.50698848     0.01000
C416        C  0.44448054  0.67170597  0.54957362     0.03600
C417        C  0.44938718  0.71112652  0.57008624    -0.19200
C418        C  0.42621696  0.73568143  0.54045960    -0.19500
C419        C  0.40686688  0.71030821  0.50344530     0.03500
H420        H  0.46563853  0.72011070  0.60617900     0.17300
H421        H  0.41979536  0.76684276  0.55175456     0.17400
N422        N  0.47407920  0.59569614  0.33246438     0.01000
C423        C  0.47785884  0.63172432  0.35983606     0.03600
C424        C  0.51674004  0.64342985  0.36517841    -0.19200
C425        C  0.03301111  0.60894341  0.33872824    -0.19500
C426        C  0.51038451  0.58237335  0.32536592     0.03500
H427        H  0.52763733  0.66784291  0.39167947     0.17300
H428        H  0.06388634  0.60688947  0.34085161     0.17400
N429        N  0.15739717  0.76104504  0.54838088     0.01000
C430        C  0.13471867  0.75600481  0.60569424     0.04800
C431        C  0.13496434  0.71594262  0.63496737    -0.19200
C432        C  0.15942843  0.69598440  0.59468214    -0.19500
C433        C  0.17468051  0.72499683  0.54265812     0.03500
H434        H  0.21480777  0.88552132  0.32035546     0.17300
H435        H  0.17055774  0.66640643  0.60718242     0.17400
N436        N  0.08287301  0.82802035  0.39456434     0.01000
C437        C  0.08450936  0.79797468  0.44140004     0.03600
C438        C  0.04845424  0.78893959  0.48039591    -0.19200
C439        C  0.02418756  0.81585892  0.45810672    -0.19500
C440        C  0.04647837  0.84071423  0.40645410     0.03500
H441        H  0.04203515  0.76905143  0.52456718     0.17300
H442        H  0.99539405  0.82068625  0.48205075     0.17400
O443        O  0.46619480  0.93705312  0.35787419    -0.67300
O444        O  0.04004923  0.97089253  0.45741773    -0.67500
O445        O  0.99572541  0.50982358  0.39134504    -0.67300
O446        O  0.00988261  0.89877782  0.41978976    -0.67300
O447        O  0.06450791  0.90157563  0.67684365    -0.67300
O448        O  0.05639007  0.51362434  0.64231786    -0.67300
O449        O  0.10142277  0.46936270  0.71011172    -0.67300
O450        O  0.01950156  0.94662963  0.60924161    -0.67500
V451        V  0.00365135  0.95685735  0.40283352     1.35200
V452        V  0.05802629  0.96027935  0.65983850     1.35200
C453        C  0.47703787  0.93837988  0.30013025     0.82000
C454        C  0.07905946  0.47754206  0.43606482     0.82000
C455        C  0.01386420  0.53285670  0.34266125     0.81900
C456        C  0.03752927  0.88353880  0.38750298     0.81900
O457        O  0.30228719  0.79193575  0.50796965    -0.67300
O458        O  0.28284011  0.67911453  0.58958543    -0.67500
O459        O  0.34695657  0.73339998  0.54097714    -0.67300
O460        O  0.23863185  0.73906603  0.56179443    -0.67300
O461        O  0.23461942  0.71591808  0.47282593    -0.67300
O462        O  0.34684010  0.70495383  0.45498446    -0.67300
O463        O  0.27816592  0.65435846  0.50167969    -0.67300
O464        O  0.30205974  0.76712395  0.41904215    -0.67500
V465        V  0.29275990  0.73538144  0.54798226     1.35200
V466        V  0.29072521  0.71133537  0.46321619     1.35200
C467        C  0.30404318  0.79866152  0.44964107     0.82000
C468        C  0.27656814  0.64759765  0.55947122     0.82000
C469        C  0.36544860  0.71667593  0.49769679     0.81900
C470        C  0.21773433  0.72776733  0.52298471     0.81900
N471        N  0.13609167  0.51923312  0.47354803     0.01000
C472        C  0.15293466  0.51622920  0.52528308     0.03600
C473        C  0.13633342  0.47927013  0.56270421    -0.19200
C474        C  0.10760769  0.45990179  0.53343458    -0.19500
C475        C  0.10785349  0.48542356  0.47863895     0.03500
H476        H  0.14443471  0.46750852  0.60617070     0.17300
H477        H  0.08614551  0.93164964  0.55024852     0.17400
N478        N  0.23435869  0.57954909  0.60619101     0.01000
C479        C  0.23439826  0.55697494  0.66133169     0.03600
C480        C  0.26993587  0.56528624  0.68138760    -0.19200
C481        C  0.29269322  0.59512387  0.63725021    -0.19500
C482        C  0.27004604  0.60433994  0.59208585     0.03500
H483        H  0.27698698  0.55438128  0.72611831     0.17300
H484        H  0.32066671  0.61252063  0.64195219     0.17400
C485        C  0.14918674  0.54979192  0.42245725    -0.08800
C486        C  0.19934070  0.53790924  0.70277778    -0.10300
C487        C  0.18311616  0.54732961  0.54165690    -0.08800
C488        C  0.20749380  0.56693768  0.56656463    -0.10300
C489        C  0.12024778  0.78907056  0.46293608    -0.08800
C490        C  0.14184999  0.77897768  0.49823147    -0.10300
C491        C  0.11759003  0.78947316  0.63772557    -0.08800
C492        C  0.11320634  0.84032102  0.34253346    -0.10300
C493        C  0.42982515  0.65316902  0.45202154    -0.08800
C494        C  0.44674835  0.64255584  0.40479923    -0.10300
C495        C  0.47266948  0.61331065  0.61856103    -0.08800
C496        C  0.45883319  0.63495764  0.58029298    -0.10300
C497        C  0.34194943  0.91532987  0.50485303    -0.08800
C498        C  0.36542277  0.92315366  0.53856980    -0.10300
C499        C  0.36335786  0.88642968  0.36799978    -0.08800
C500        C  0.38582167  0.90226156  0.32052321    -0.10300
N501        N  0.34693077  0.87429159  0.76818791     0.01000
C502        C  0.33559079  0.90631354  0.80022691     0.03600
C503        C  0.29571948  0.89992366  0.82263114    -0.19200
C504        C  0.28205721  0.86152702  0.80528383    -0.19500
C505        C  0.31448577  0.84478370  0.77549872     0.03500
H506        H  0.27954571  0.91779528  0.85536205     0.17300
H507        H  0.25336888  0.84380708  0.82446716     0.17400
N508        N  0.41766745  0.92078849  0.60602289     0.01000
C509        C  0.42382344  0.96119590  0.87657760     0.03600
C510        C  0.45158887  0.99196186  0.84150972    -0.19200
C511        C  0.48436363  0.99293776  0.86964667    -0.19500
C512        C  0.45615317  0.93878997  0.59499149     0.03500
H513        H  0.44828645  0.01124991  0.79975578     0.17300
H514        H  0.51155287  0.01447503  0.85530658     0.17400
N515        N  0.43155502  0.67258488  0.84823785     0.01000
C516        C  0.45624649  0.67665949  0.89059742     0.03600
C517        C  0.46058985  0.71766376  0.90549570    -0.19200
C518        C  0.43719917  0.73949893  0.87230738    -0.19500
C519        C  0.41802330  0.71092523  0.83921620     0.03500
H520        H  0.47678580  0.72967198  0.93996297     0.17300
H521        H  0.43003593  0.77112601  0.87953174     0.17400
N522        N  0.49060517  0.59809396  0.66906505     0.01000
C523        C  0.49406580  0.62485599  0.71271294     0.03600
C524        C  0.53219482  0.63173061  0.72361291    -0.19200
C525        C  0.05575411  0.59939751  0.69906242    -0.19500
C526        C  0.52616053  0.58258074  0.65966020     0.03500
H527        H  0.54266779  0.64957409  0.75872280     0.17300
H528        H  0.08431726  0.59102121  0.70675065     0.17400
N529        N  0.16847120  0.76448446  0.88818027     0.01000
C530        C  0.14802653  0.76212564  0.94690713     0.04800
C531        C  0.14830854  0.72291012  0.97877310    -0.19200
C532        C  0.17070472  0.70078574  0.93877209    -0.19500
C533        C  0.18517232  0.72779998  0.88425846     0.03500
H534        H  0.12146006  0.70375083  0.68221071     0.17300
H535        H  0.18155990  0.67130295  0.95272195     0.17400
N536        N  0.08668433  0.82278575  0.73545139     0.01000
C537        C  0.09022513  0.80011245  0.78924614     0.03600
C538        C  0.05612495  0.79639871  0.83226994    -0.19200
C539        C  0.03058094  0.81872595  0.80489720    -0.19500
C540        C  0.05047597  0.83650698  0.74649490     0.03500
H541        H  0.05165494  0.78243780  0.88023526     0.17300
H542        H  0.00294392  0.82663721  0.82899538     0.17400
O543        O  0.47612460  0.93701533  0.69358972    -0.67300
O544        O  0.05088189  0.96825032  0.78891425    -0.67500
O545        O  0.01161613  0.50800022  0.72493669    -0.67300
O546        O  0.01649928  0.89710581  0.75502697    -0.67300
O547        O  0.08158753  0.91689886  0.01609005    -0.67300
O548        O  0.06776589  0.53649572  0.98924579    -0.67300
O549        O  0.11032930  0.49036118  0.05748009    -0.67300
O550        O  0.03852956  0.96461507  0.94722309    -0.67500
V551        V  0.01311148  0.95580793  0.73669880     1.35200
V552        V  0.07390944  0.97616879  0.00299926     1.35200
C553        C  0.48569331  0.93718551  0.63593433     0.82000
C554        C  0.09145197  0.46851190  0.76844495     0.82000
C555        C  0.03145853  0.53060649  0.67716322     0.81900
C556        C  0.04287571  0.87962101  0.72343812     0.81900
O557        O  0.31674025  0.79012064  0.85540563    -0.67300
O558        O  0.28885035  0.67529607  0.92773061    -0.67500
O559        O  0.35631331  0.72565086  0.88563423    -0.67300
O560        O  0.24971777  0.74068785  0.90209050    -0.67300
O561        O  0.24459593  0.71589292  0.81441948    -0.67300
O562        O  0.35764349  0.70837589  0.79203664    -0.67300
O563        O  0.29035124  0.65438399  0.83598933    -0.67300
O564        O  0.31086971  0.77038541  0.76479245    -0.67500
V565        V  0.30299212  0.73248681  0.89057665     1.35200
V566        V  0.30112813  0.71283184  0.80297785     1.35200
C567        C  0.31596889  0.79997189  0.79828568     0.82000
C568        C  0.28537053  0.64524455  0.89405766     0.82000
C569        C  0.37563578  0.71474958  0.83756780     0.81900
C570        C  0.22828173  0.72929885  0.86391484     0.81900
N571        N  0.15122979  0.50765695  0.80382086     0.01000
C572        C  0.16348490  0.50924309  0.85958841     0.03600
C573        C  0.14133776  0.47761553  0.90225529    -0.19200
C574        C  0.11412200  0.45677006  0.87192612    -0.19500
C575        C  0.12021558  0.47633622  0.81160465     0.03500
H576        H  0.14465199  0.47052755  0.95017054     0.17300
H577        H  0.09070749  0.93133727  0.88634425     0.17400
N578        N  0.24087976  0.57984474  0.94146188     0.01000
C579        C  0.24002511  0.56071475  0.99940555     0.03600
C580        C  0.27656123  0.56651765  0.01687913    -0.19200
C581        C  0.30090505  0.59125682  0.96831264    -0.19500
C582        C  0.27809428  0.60091580  0.92342832     0.03500
H583        H  0.28354051  0.55833303  0.06261295     0.17300
H584        H  0.33001432  0.60703280  0.97064910     0.17400
C585        C  0.17444076  0.52466035  0.74702580    -0.08800
C586        C  0.20472340  0.54992226  0.04487030    -0.10300
C587        C  0.19370697  0.54054333  0.87568899    -0.08800
C588        C  0.21622269  0.56204413  0.90176738    -0.10300
C589        C  0.12692813  0.79017157  0.80690808    -0.08800
C590        C  0.15037576  0.78037886  0.83938114    -0.10300
C591        C  0.13180926  0.79708681  0.97664970    -0.08800
C592        C  0.10342743  0.80950282  0.67841161    -0.10300
C593        C  0.44296150  0.65081386  0.79704688    -0.08800
C594        C  0.46143203  0.63705433  0.75369076    -0.10300
C595        C  0.48680073  0.62396895  0.96453671    -0.08800
C596        C  0.47221415  0.64247848  0.92424968    -0.10300
C597        C  0.36270520  0.93123551  0.82962965    -0.08800
C598        C  0.38825971  0.94605307  0.85549258    -0.10300
C599        C  0.37426887  0.88433574  0.71163731    -0.08800
C600        C  0.39545014  0.89893709  0.66249270    -0.10300
N601        N  0.86027271  0.36870087  0.05910555     0.01000
C602        C  0.83635899  0.39232852  0.09219507     0.03600
C603        C  0.79797567  0.38312594  0.08350328    -0.19200
C604        C  0.79809606  0.35021877  0.04707929    -0.19500
C605        C  0.83580740  0.33758372  0.04119048     0.03500
H606        H  0.77207774  0.39416859  0.10831516     0.17300
H607        H  0.77133457  0.33058855  0.04198628     0.17400
N608        N  0.93736790  0.44345728  0.92598715     0.01000
C609        C  0.89761470  0.43832721  0.21150979     0.03600
C610        C  0.92770702  0.46342803  0.17104323    -0.19200
C611        C  0.96011739  0.46477593  0.19922482    -0.19500
C612        C  0.97494469  0.46270197  0.92092892     0.03500
H613        H  0.92673195  0.47737920  0.12440329     0.17300
H614        H  0.98875645  0.48254807  0.18071946     0.17400
N615        N  0.89932134  0.13520803  0.16789021     0.01000
C616        C  0.89546572  0.10181122  0.21280501     0.03600
C617        C  0.85728159  0.08146356  0.22332119    -0.19200
C618        C  0.83721881  0.10326997  0.18332215    -0.19500
C619        C  0.86342304  0.13706650  0.15008928     0.03500
H620        H  0.84459387  0.05564347  0.25910290     0.17300
H621        H  0.80546694  0.09868622  0.18527671     0.17400
N622        N  0.00420377  0.11341572  0.01826723     0.01000
C623        C  0.00368856  0.14168592  0.06062970     0.03600
C624        C  0.03891884  0.14625843  0.08243930    -0.19200
C625        C  0.55753246  0.11835734  0.05932379    -0.19500
C626        C  0.03926975  0.09720486  0.01632162     0.03500
H627        H  0.04544580  0.16334320  0.12073198     0.17300
H628        H  0.58450803  0.10982050  0.07368723     0.17400
N629        N  0.69073804  0.32002218  0.22078839     0.01000
C630        C  0.68061074  0.34655434  0.26413821     0.04800
C631        C  0.71376336  0.36570853  0.28280182    -0.19200
C632        C  0.74540834  0.35021851  0.25050230    -0.19500
C633        C  0.73078229  0.32144708  0.21321868     0.03500
H634        H  0.63609479  0.21304855  0.02741118     0.17300
H635        H  0.77569550  0.35640197  0.25792953     0.17400
N636        N  0.60210260  0.33409140  0.07179832     0.01000
C637        C  0.60332631  0.30909905  0.12511635     0.03600
C638        C  0.56780809  0.30471182  0.16499286    -0.19200
C639        C  0.54401444  0.32905704  0.13664959    -0.19500
C640        C  0.56618439  0.34893507  0.08087774     0.03500
H641        H  0.56158732  0.29003445  0.21268794     0.17300
H642        H  0.51602917  0.33698459  0.15942365     0.17400
O643        O  0.98901332  0.45499843  0.02375767    -0.67300
O644        O  0.56145368  0.48110024  0.13244807    -0.67500
O645        O  0.51763579  0.02549440  0.06588152    -0.67300
O646        O  0.53190511  0.40952148  0.09188924    -0.67300
O647        O  0.55895148  0.40701462  0.34259741    -0.67300
O648        O  0.54103469  0.01855454  0.31006198    -0.67300
O649        O  0.58910939  0.98015384  0.37855072    -0.67300
O650        O  0.51369393  0.44896767  0.27463472    -0.67500
V651        V  0.52647662  0.46810465  0.07631020     1.35200
V652        V  0.54993673  0.46445498  0.32757248     1.35200
C653        C  0.00164044  0.45911914  0.96616324     0.82000
C654        C  0.59743694  0.98927172  0.11568993     0.82000
C655        C  0.53986181  0.05093246  0.02340248     0.81900
C656        C  0.55936827  0.39343604  0.06037967     0.81900
O657        O  0.84859333  0.28884827  0.12110851    -0.67300
O658        O  0.79480566  0.20686268  0.25183424    -0.67500
O659        O  0.85798461  0.20851108  0.16477136    -0.67300
O660        O  0.78721265  0.28644677  0.21031446    -0.67300
O661        O  0.74748363  0.26414686  0.14952962    -0.67300
O662        O  0.81802958  0.18050038  0.10829402    -0.67300
O663        O  0.75460653  0.18325465  0.19224720    -0.67300
O664        O  0.81038580  0.26369244  0.05993649    -0.67500
V665        V  0.82152642  0.24703991  0.18535237     1.35200
V666        V  0.78385907  0.22335909  0.12756336     1.35200
C667        C  0.83446674  0.29369836  0.07154613     0.82000
C668        C  0.76500613  0.18197294  0.24472341     0.82000
C669        C  0.84763627  0.17794829  0.13608561     0.81900
C670        C  0.75565738  0.28923811  0.18888409     0.81900
N671        N  0.65517314  0.03092946  0.14979609     0.01000
C672        C  0.66650991  0.03545273  0.20544761     0.03600
C673        C  0.64348689  0.00622600  0.25064051    -0.19200
C674        C  0.61635342  0.98376517  0.22211861    -0.19500
C675        C  0.62391685  0.99994979  0.16029078     0.03500
H676        H  0.64592840  0.00271647  0.29921559     0.17300
H677        H  0.59167585  0.46461271  0.24191463     0.17400
N678        N  0.71268478  0.12268332  0.29961249     0.01000
C679        C  0.69516375  0.11406310  0.35975001     0.03600
C680        C  0.71247747  0.14042955  0.39671041    -0.19200
C681        C  0.74193705  0.16690751  0.35781167    -0.19500
C682        C  0.74128359  0.15576290  0.29869795     0.03500
H683        H  0.70499484  0.13971621  0.44663527     0.17300
H684        H  0.76139991  0.19235505  0.37056321     0.17400
C685        C  0.67963682  0.04308732  0.09215087    -0.08800
C686        C  0.66628885  0.07871990  0.38572094    -0.10300
C687        C  0.69137265  0.07143328  0.22118846    -0.08800
C688        C  0.70423095  0.09786430  0.25191351    -0.10300
C689        C  0.63947598  0.30308481  0.14875945    -0.08800
C690        C  0.66542830  0.30661316  0.17991321    -0.10300
C691        C  0.64160101  0.34536798  0.30097754    -0.08800
C692        C  0.61822444  0.31914724  0.01560586    -0.10300
C693        C  0.93557258  0.14908229  0.12829548    -0.08800
C694        C  0.96725927  0.15190607  0.09469543    -0.10300
C695        C  0.94765705  0.09132121  0.28966952    -0.08800
C696        C  0.92479857  0.09363571  0.25264786    -0.10300
C697        C  0.84675691  0.40912158  0.14703562    -0.08800
C698        C  0.86370391  0.42098556  0.18756867    -0.10300
C699        C  0.89196529  0.39113698  0.01513590    -0.08800
C700        C  0.91509772  0.41402658  0.97477592    -0.10300
N701        N  0.83473603  0.37250438  0.42190264     0.01000
C702        C  0.82017210  0.40119354  0.45794319     0.03600
C703        C  0.77952998  0.39476638  0.46918418    -0.19200
C704        C  0.76895624  0.35874340  0.44280717    -0.19500
C705        C  0.80369520  0.34279081  0.42049212     0.03500
H706        H  0.76017705  0.40930868  0.50248101     0.17300
H707        H  0.73981315  0.34047541  0.45431101     0.17400
N708        N  0.90996721  0.42438940  0.26501708     0.01000
C709        C  0.90258776  0.43650994  0.55478854     0.03600
C710        C  0.93064926  0.46354953  0.51366174    -0.19200
C711        C  0.96407266  0.46601635  0.53939244    -0.19500
C712        C  0.94899542  0.44040664  0.25611228     0.03500
H713        H  0.92679787  0.48048232  0.47028351     0.17300
H714        H  0.99036268  0.48821255  0.52300204     0.17400
N715        N  0.91938726  0.17118663  0.50736614     0.01000
C716        C  0.94414100  0.17134300  0.55012314     0.03600
C717        C  0.94923275  0.21076098  0.57057912    -0.19200
C718        C  0.92628075  0.23548923  0.54077610    -0.19500
C719        C  0.90686441  0.21022544  0.50371333     0.03500
H720        H  0.96548397  0.21965369  0.60671456     0.17300
H721        H  0.92003955  0.26672578  0.55196169     0.17400
N722        N  0.97414019  0.09582023  0.33272022     0.01000
C723        C  0.97786794  0.13181533  0.36016830     0.03600
C724        C  0.01672920  0.14350981  0.36563915    -0.19200
C725        C  0.53247611  0.10883389  0.33934353    -0.19500
C726        C  0.01044331  0.08249749  0.32566783     0.03500
H727        H  0.02758224  0.16788982  0.39223143     0.17300
H728        H  0.56338236  0.10686157  0.34131022     0.17400
N729        N  0.65746078  0.26153194  0.54829002     0.01000
C730        C  0.63474377  0.25640052  0.60558136     0.04800
C731        C  0.63514136  0.21637336  0.63486097    -0.19200
C732        C  0.65974635  0.19653757  0.59462011    -0.19500
C733        C  0.67489867  0.22558564  0.54260784     0.03500
H734        H  0.71465833  0.38582105  0.31980437     0.17300
H735        H  0.67100762  0.16704186  0.60713414     0.17400
N736        N  0.58277720  0.32786035  0.39432669     0.01000
C737        C  0.58444211  0.29776419  0.44106931     0.03600
C738        C  0.54840107  0.28870725  0.48010635    -0.19200
C739        C  0.52414303  0.31570625  0.45797885    -0.19500
C740        C  0.54642096  0.34060653  0.40636151     0.03500
H741        H  0.54201585  0.26880968  0.52426982     0.17300
H742        H  0.49538630  0.32055991  0.48202954     0.17400
O743        O  0.96632276  0.43735789  0.35724153    -0.67300
O744        O  0.54014375  0.47116086  0.45719673    -0.67500
O745        O  0.49535154  0.00957947  0.39213616    -0.67300
O746        O  0.51005272  0.39880442  0.42005074    -0.67300
O747        O  0.56451874  0.40162845  0.67709208    -0.67300
O748        O  0.55634917  0.01370658  0.64329519    -0.67300
O749        O  0.60155728  0.96972122  0.71107029    -0.67300
O750        O  0.51939433  0.44640997  0.60941524    -0.67500
V751        V  0.50370048  0.45682477  0.40283043     1.35200
V752        V  0.55799214  0.46027860  0.65980222     1.35200
C753        C  0.97714031  0.43860097  0.29950992     0.82000
C754        C  0.57883533  0.97774553  0.43675924     0.82000
C755        C  0.51344037  0.03269455  0.34349630     0.81900
C756        C  0.53754030  0.38347590  0.38754161     0.81900
O757        O  0.80269203  0.29253581  0.50751359    -0.67300
O758        O  0.78282958  0.17990119  0.58963877    -0.67500
O759        O  0.84713118  0.23383821  0.54085793    -0.67300
O760        O  0.73887847  0.23997216  0.56148867    -0.67300
O761        O  0.73478801  0.21653388  0.47273283    -0.67300
O762        O  0.84692306  0.20523042  0.45501040    -0.67300
O763        O  0.77814098  0.15492935  0.50188122    -0.67300
O764        O  0.80229254  0.26753799  0.41874561    -0.67500
V765        V  0.79297154  0.23606451  0.54776964     1.35200
V766        V  0.79085468  0.21182093  0.46315724     1.35200
C767        C  0.80434261  0.29914561  0.44920471     0.82000
C768        C  0.77645113  0.14831859  0.55970371     0.82000
C769        C  0.86554307  0.21690227  0.49773640     0.81900
C770        C  0.71794439  0.22851331  0.52281003     0.81900
N771        N  0.63565316  0.01993227  0.47423255     0.01000
C772        C  0.65257282  0.01702650  0.52591406     0.03600
C773        C  0.63619654  0.97997850  0.56328978    -0.19200
C774        C  0.60755864  0.96041830  0.53404767    -0.19500
C775        C  0.60760584  0.98592056  0.47931366     0.03500
H776        H  0.64441118  0.96826670  0.60669379     0.17300
H777        H  0.58583553  0.43195361  0.55024133     0.17400
N778        N  0.73382706  0.08066655  0.60686271     0.01000
C779        C  0.73367712  0.05840595  0.66231600     0.03600
C780        C  0.76918904  0.06663046  0.68245984    -0.19200
C781        C  0.79217475  0.09605913  0.63801420    -0.19500
C782        C  0.76966975  0.10515852  0.59260429     0.03500
H783        H  0.77611949  0.05589685  0.72734430     0.17300
H784        H  0.82022288  0.11333716  0.64262219     0.17400
C785        C  0.64860956  0.05054499  0.42314941    -0.08800
C786        C  0.69858920  0.03939983  0.70369130    -0.10300
C787        C  0.68270151  0.04822813  0.54224603    -0.08800
C788        C  0.70703585  0.06789044  0.56719042    -0.10300
C789        C  0.62019565  0.28907117  0.46270999    -0.08800
C790        C  0.64182758  0.27923866  0.49809115    -0.10300
C791        C  0.61753941  0.28979684  0.63768485    -0.08800
C792        C  0.61310076  0.34026982  0.34232436    -0.10300
C793        C  0.92969264  0.15304766  0.45236136    -0.08800
C794        C  0.94670403  0.14255579  0.40511677    -0.10300
C795        C  0.97224107  0.11296217  0.61921979    -0.08800
C796        C  0.95836359  0.13452377  0.58090183    -0.10300
C797        C  0.84150325  0.41611768  0.50437772    -0.08800
C798        C  0.86498441  0.42399402  0.53806355    -0.10300
C799        C  0.86337588  0.38705792  0.36775201    -0.08800
C800        C  0.88586533  0.40281145  0.32026996    -0.10300
N801        N  0.84684101  0.37442232  0.76763399     0.01000
C802        C  0.83541424  0.40636836  0.79976515     0.03600
C803        C  0.79553859  0.39988016  0.82211453    -0.19200
C804        C  0.78197265  0.36147761  0.80468009    -0.19500
C805        C  0.81447184  0.34480588  0.77496219     0.03500
H806        H  0.77930926  0.41766735  0.85490574     0.17300
H807        H  0.75331771  0.34368221  0.82386805     0.17400
N808        N  0.91730202  0.42136878  0.60535015     0.01000
C809        C  0.92364270  0.46104897  0.87625025     0.03600
C810        C  0.95150175  0.49159648  0.84090608    -0.19200
C811        C  0.98425888  0.49262980  0.86907501    -0.19500
C812        C  0.95586596  0.43911262  0.59416853     0.03500
H813        H  0.94826346  0.51070691  0.79895927     0.17300
H814        H  0.01150520  0.51405174  0.85455680     0.17400
N815        N  0.93140807  0.17232194  0.84911925     0.01000
C816        C  0.95597413  0.17613990  0.89171609     0.03600
C817        C  0.96033789  0.21705056  0.90697766    -0.19200
C818        C  0.93711439  0.23910514  0.87376378    -0.19500
C819        C  0.91798194  0.21074980  0.84030943     0.03500
H820        H  0.97647257  0.22886256  0.94164100     0.17300
H821        H  0.93002453  0.27073275  0.88116277     0.17400
N822        N  0.99032633  0.09791597  0.66965078     0.01000
C823        C  0.99385830  0.12480113  0.71314006     0.03600
C824        C  0.03204598  0.13180812  0.72375017    -0.19200
C825        C  0.55549581  0.09943964  0.69998415    -0.19500
C826        C  0.02592686  0.08249806  0.66006525     0.03500
H827        H  0.04259432  0.14976278  0.75869275     0.17300
H828        H  0.58410800  0.09116529  0.70757822     0.17400
N829        N  0.66846181  0.26469213  0.88831642     0.01000
C830        C  0.64797832  0.26241045  0.94700670     0.04800
C831        C  0.64832625  0.22326749  0.97904304    -0.19200
C832        C  0.67079949  0.20111545  0.93918706    -0.19500
C833        C  0.68523179  0.22803976  0.88457589     0.03500
H834        H  0.62166352  0.20415040  0.68210371     0.17300
H835        H  0.68171090  0.17169554  0.95328238     0.17400
N836        N  0.58660475  0.32283834  0.73565311     0.01000
C837        C  0.59019676  0.30011699  0.78937875     0.03600
C838        C  0.55617388  0.29651056  0.83255300    -0.19200
C839        C  0.53062997  0.31893651  0.80533565    -0.19500
C840        C  0.55044224  0.33664478  0.74685458     0.03500
H841        H  0.55177650  0.28257420  0.88052319     0.17300
H842        H  0.50306217  0.32692992  0.82955472     0.17400
O843        O  0.97588446  0.43728456  0.69274411    -0.67300
O844        O  0.55099249  0.46837565  0.78881747    -0.67500
O845        O  0.51156094  0.00785065  0.72592047    -0.67300
O846        O  0.51643408  0.39724257  0.75514603    -0.67300
O847        O  0.58153472  0.41735715  0.01595954    -0.67300
O848        O  0.56771077  0.03648932  0.99022817    -0.67300
O849        O  0.61025402  0.99028539  0.05831477    -0.67300
O850        O  0.53844975  0.46499356  0.94709775    -0.67500
V851        V  0.51315057  0.45596921  0.73672758     1.35200
V852        V  0.57389612  0.47663296  0.00275331     1.35200
C853        C  0.98541868  0.43739372  0.63508828     0.82000
C854        C  0.59154518  0.96880542  0.76941271     0.82000
C855        C  0.53133484  0.03055645  0.67817605     0.81900
C856        C  0.54283984  0.37972338  0.72367691     0.81900
O857        O  0.81688967  0.29046022  0.85525148    -0.67300
O858        O  0.78880798  0.17589468  0.92860688    -0.67500
O859        O  0.85633777  0.22601411  0.88620672    -0.67300
O860        O  0.74979161  0.24124044  0.90224469    -0.67300
O861        O  0.74465862  0.21594086  0.81492520    -0.67300
O862        O  0.85769366  0.20832734  0.79282596    -0.67300
O863        O  0.79036869  0.15453371  0.83712902    -0.67300
O864        O  0.81095114  0.27030634  0.76489838    -0.67500
V865        V  0.80304763  0.23294512  0.89094214     1.35200
V866        V  0.80118712  0.21286826  0.80359515     1.35200
C867        C  0.81606478  0.30006968  0.79809354     0.82000
C868        C  0.78533589  0.14566576  0.89524341     0.82000
C869        C  0.87565365  0.21481418  0.83836131     0.81900
C870        C  0.72834662  0.22958919  0.86422008     0.81900
N871        N  0.65103800  0.00840410  0.80491029     0.01000
C872        C  0.66347063  0.00985775  0.86056841     0.03600
C873        C  0.64161077  0.97794397  0.90307981    -0.19200
C874        C  0.61442442  0.95703157  0.87275522    -0.19500
C875        C  0.62025533  0.97683022  0.81259272     0.03500
H876        H  0.64510200  0.97069563  0.95088608     0.17300
H877        H  0.59064984  0.43182561  0.88631794     0.17400
N878        N  0.74078817  0.08031068  0.94273576     0.01000
C879        C  0.73971453  0.06130153  0.00081170     0.03600
C880        C  0.77609800  0.06731221  0.01876017    -0.19200
C881        C  0.80057997  0.09203223  0.97033361    -0.19500
C882        C  0.77799524  0.10145782  0.92503598     0.03500
H883        H  0.78286001  0.05926142  0.06467418     0.17300
H884        H  0.82959683  0.10792361  0.97295015     0.17400
C885        C  0.67390336  0.02588480  0.74808079    -0.08800
C886        C  0.70427168  0.05039244  0.04590855    -0.10300
C887        C  0.69365687  0.04119626  0.87670954    -0.08800
C888        C  0.71617285  0.06263370  0.90287853    -0.10300
C889        C  0.62693045  0.29018252  0.80692080    -0.08800
C890        C  0.65038579  0.28046156  0.83942008    -0.10300
C891        C  0.63169204  0.29740588  0.97657678    -0.08800
C892        C  0.60334655  0.30971186  0.67849629    -0.10300
C893        C  0.94284142  0.15066603  0.79779165    -0.08800
C894        C  0.96128027  0.13696148  0.75432905    -0.10300
C895        C  0.98660341  0.12332268  0.96530221    -0.08800
C896        C  0.97194060  0.14183557  0.92510828    -0.10300
C897        C  0.86246351  0.43121762  0.82936858    -0.08800
C898        C  0.88802292  0.44595289  0.85528924    -0.10300
C899        C  0.87403677  0.38467478  0.71095678    -0.08800
C900        C  0.89512297  0.39942364  0.66179022    -0.10300
N901        N  0.86338331  0.85985103  0.04956984     0.01000
C902        C  0.83895296  0.88244034  0.08354741     0.03600
C903        C  0.80101487  0.87422591  0.07219621    -0.19200
C904        C  0.80193956  0.84245173  0.03365694    -0.19500
C905        C  0.83925485  0.82896557  0.03038845     0.03500
H906        H  0.77477206  0.88511526  0.09614053     0.17300
H907        H  0.77540885  0.82350668  0.02608107     0.17400
N908        N  0.93875112  0.94118720  0.92275509     0.01000
C909        C  0.89987823  0.92848670  0.20267949     0.03600
C910        C  0.92908135  0.95426433  0.16153023    -0.19200
C911        C  0.96032583  0.96117156  0.19173721    -0.19500
C912        C  0.97506679  0.96279811  0.92103651     0.03500
H913        H  0.92802560  0.96591988  0.11389199     0.17300
H914        H  0.98789191  0.98108023  0.17346566     0.17400
N915        N  0.89335851  0.62581065  0.17434332     0.01000
C916        C  0.88883676  0.59323670  0.22069742     0.03600
C917        C  0.84988140  0.57496455  0.23328150    -0.19200
C918        C  0.83020185  0.59725102  0.19307474    -0.19500
C919        C  0.85748552  0.62914449  0.15742755     0.03500
H920        H  0.83653893  0.55044076  0.27065029     0.17300
H921        H  0.79838166  0.59432503  0.19604569     0.17400
N922        N  0.00104269  0.61250299  0.02041866     0.01000
C923        C  0.99859537  0.63852251  0.06583808     0.03600
C924        C  0.03329653  0.64356325  0.08900908    -0.19200
C925        C  0.56196411  0.61953600  0.05242768    -0.19500
C926        C  0.03670414  0.59742661  0.01863411     0.03500
H927        H  0.03836876  0.65891250  0.12951693     0.17300
H928        H  0.58896519  0.61060419  0.06622406     0.17400
N929        N  0.69416316  0.82069468  0.21414916     0.01000
C930        C  0.68480734  0.84800070  0.25668225     0.04800
C931        C  0.71852094  0.86793737  0.27279775    -0.19200
C932        C  0.74970329  0.85197776  0.23990938    -0.19500
C933        C  0.73426181  0.82222145  0.20476937     0.03500
H934        H  0.63668542  0.71308335  0.02609393     0.17300
H935        H  0.78023112  0.85832306  0.24601099     0.17400
N936        N  0.60318039  0.83425414  0.06828990     0.01000
C937        C  0.60510634  0.80947522  0.12150127     0.03600
C938        C  0.56981777  0.80456295  0.16200956    -0.19200
C939        C  0.54542300  0.82840614  0.13426469    -0.19500
C940        C  0.56706533  0.84867842  0.07832564     0.03500
H941        H  0.56409124  0.78982669  0.20966582     0.17300
H942        H  0.51742522  0.83590926  0.15766056     0.17400
O943        O  0.98917301  0.95479907  0.02375245    -0.67300
O944        O  0.56069214  0.97948739  0.13469192    -0.67500
O945        O  0.51895625  0.52657926  0.06293244    -0.67300
O946        O  0.53204445  0.90862879  0.09127812    -0.67300
O947        O  0.56241210  0.90524274  0.34339157    -0.67300
O948        O  0.54335711  0.52219699  0.30756343    -0.67300
O949        O  0.58798931  0.48068011  0.37883703    -0.67300
O950        O  0.51373026  0.94457870  0.27833324    -0.67500
V951        V  0.52597628  0.96717008  0.07756094     1.35200
V952        V  0.55060354  0.96175879  0.32925280     1.35200
C953        C  0.00168754  0.95835151  0.96621382     0.82000
C954        C  0.59814750  0.49088637  0.11319518     0.82000
C955        C  0.54153644  0.55126685  0.01996240     0.81900
C956        C  0.55978404  0.89328239  0.05919799     0.81900
O957        O  0.85066876  0.78189021  0.11320756    -0.67300
O958        O  0.79521880  0.70732804  0.25126340    -0.67500
O959        O  0.85647065  0.70230308  0.16451104    -0.67300
O960        O  0.79040494  0.78631988  0.20229056    -0.67300
O961        O  0.74869352  0.76227291  0.14563617    -0.67300
O962        O  0.81483125  0.67386623  0.11100567    -0.67300
O963        O  0.75364069  0.68241160  0.19466965    -0.67300
O964        O  0.81017681  0.75623640  0.05573274    -0.67500
V965        V  0.82250666  0.74390997  0.18121797     1.35200
V966        V  0.78307672  0.71921237  0.12675583     1.35200
C967        C  0.83604831  0.78567441  0.06400445     0.82000
C968        C  0.76513024  0.68219605  0.24626643     0.82000
C969        C  0.84416908  0.67076543  0.13918841     0.81900
C970        C  0.75836245  0.78888267  0.18208351     0.81900
N971        N  0.65433048  0.53550543  0.14706837     0.01000
C972        C  0.66264450  0.54333918  0.20361641     0.03600
C973        C  0.63874153  0.51548276  0.24938455    -0.19200
C974        C  0.61436114  0.48999610  0.22034931    -0.19500
C975        C  0.62401220  0.50336412  0.15771018     0.03500
H976        H  0.63907326  0.51484100  0.29841792     0.17300
H977        H  0.59366159  0.95842112  0.24346085     0.17400
N978        N  0.71248290  0.62456153  0.30156682     0.01000
C979        C  0.69859027  0.61229132  0.36235007     0.03600
C980        C  0.72087011  0.63340542  0.39943152    -0.19200
C981        C  0.74962945  0.66047457  0.35984970    -0.19500
C982        C  0.74331265  0.65499617  0.30049041     0.03500
H983        H  0.71696099  0.62895157  0.44962026     0.17300
H984        H  0.77260261  0.68214247  0.37245759     0.17400
C985        C  0.68043230  0.54616973  0.09056442    -0.08800
C986        C  0.66758404  0.57884468  0.38751411    -0.10300
C987        C  0.68761628  0.57914183  0.21901309    -0.08800
C988        C  0.70117743  0.60329503  0.25214768    -0.10300
C989        C  0.64164576  0.80368693  0.14414121    -0.08800
C990        C  0.66810501  0.80720972  0.17436599    -0.10300
C991        C  0.64645062  0.84631876  0.29583979    -0.08800
C992        C  0.61858820  0.81880823  0.01204243    -0.10300
C993        C  0.92965953  0.64031863  0.13532793    -0.08800
C994        C  0.96125909  0.64505575  0.10121949    -0.10300
C995        C  0.94132868  0.58291323  0.29725681    -0.08800
C996        C  0.91817243  0.58494137  0.26058940    -0.10300
C997        C  0.84871072  0.89781910  0.13975464    -0.08800
C998        C  0.86595000  0.90947152  0.18016552    -0.10300
C999        C  0.89465694  0.88394605  0.00659501    -0.08800
C1000       C  0.91733566  0.90896528  0.96838507    -0.10300
N1001       N  0.83785190  0.86702418  0.41604149     0.01000
C1002       C  0.82279465  0.89683436  0.44930806     0.03600
C1003       C  0.78217713  0.89038433  0.45966044    -0.19200
C1004       C  0.77198188  0.85327272  0.43564340    -0.19500
C1005       C  0.80689093  0.83686503  0.41571272     0.03500
H1006       H  0.76249310  0.90617310  0.49069175     0.17300
H1007       H  0.74279599  0.83511559  0.44716900     0.17400
N1008       N  0.91171052  0.91910166  0.25828706     0.01000
C1009       C  0.90120676  0.94275514  0.54929201     0.03600
C1010       C  0.92851320  0.97279730  0.51154356    -0.19200
C1011       C  0.96168829  0.97523425  0.53811688    -0.19500
C1012       C  0.94946142  0.93926488  0.25043318     0.03500
H1013       H  0.92477548  0.99066747  0.46879387     0.17300
H1014       H  0.98790890  0.99794942  0.52307667     0.17400
N1015       N  0.92218371  0.66684397  0.51547181     0.01000
C1016       C  0.94701486  0.66640314  0.55815104     0.03600
C1017       C  0.95075213  0.70506884  0.58131163    -0.19200
C1018       C  0.92735653  0.72996259  0.55267617    -0.19500
C1019       C  0.90922912  0.70567533  0.51316689     0.03500
H1020       H  0.96659530  0.71332303  0.61820271     0.17300
H1021       H  0.92054962  0.76074722  0.56518888     0.17400
N1022       N  0.96850887  0.58791981  0.33924685     0.01000
C1023       C  0.97264260  0.62499808  0.36408582     0.03600
C1024       C  0.01199667  0.63943723  0.36240236    -0.19200
C1025       C  0.53752035  0.61237816  0.34252885    -0.19500
C1026       C  0.00559423  0.57663291  0.32804244     0.03500
H1027       H  0.02369213  0.66548018  0.38535492     0.17300
H1028       H  0.56732155  0.60814144  0.34927956     0.17400
N1029       N  0.66030902  0.75252733  0.54220203     0.01000
C1030       C  0.63503020  0.74542260  0.59718602     0.04800
C1031       C  0.63455713  0.70446425  0.62399359    -0.19200
C1032       C  0.66116167  0.68622280  0.58442455    -0.19500
C1033       C  0.67800104  0.71696473  0.53521458     0.03500
H1034       H  0.72016280  0.88869334  0.30888858     0.17300
H1035       H  0.67213672  0.65641938  0.59614908     0.17400
N1036       N  0.58914685  0.82663082  0.39119541     0.01000
C1037       C  0.59194428  0.79577123  0.43620297     0.03600
C1038       C  0.55665963  0.78573412  0.47693519    -0.19200
C1039       C  0.53153162  0.81265029  0.45758909    -0.19500
C1040       C  0.55253688  0.83841644  0.40578200     0.03500
H1041       H  0.55134867  0.76493908  0.52027120     0.17300
H1042       H  0.50294718  0.81656331  0.48327586     0.17400
O1043       O  0.96521328  0.94180632  0.35256864    -0.67300
O1044       O  0.54284175  0.96614289  0.45896302    -0.67500
O1045       O  0.49527754  0.51474134  0.38615863    -0.67300
O1046       O  0.51348553  0.89428927  0.42092132    -0.67300
O1047       O  0.56829177  0.89625033  0.67599555    -0.67300
O1048       O  0.55384463  0.51891231  0.63817040    -0.67300
O1049       O  0.59795682  0.47545337  0.70895715    -0.67300
O1050       O  0.52214029  0.94158840  0.61244890    -0.67500
V1051       V  0.50550734  0.95202169  0.40630055     1.35200
V1052       V  0.56120433  0.95497232  0.66219231     1.35200
C1053       C  0.97691892  0.94187727  0.29518193     0.82000
C1054       C  0.57672643  0.48033303  0.43653703     0.82000
C1055       C  0.51579858  0.53758021  0.33912561     0.81900
C1056       C  0.54185227  0.88061575  0.38795249     0.81900
O1057       O  0.80265733  0.78774808  0.50547059    -0.67300
O1058       O  0.78709765  0.67562994  0.58935916    -0.67500
O1059       O  0.84975655  0.73257777  0.54144952    -0.67300
O1060       O  0.74064201  0.73198341  0.55892802    -0.67300
O1061       O  0.73981808  0.71090494  0.46791349    -0.67300
O1062       O  0.85145584  0.69941143  0.45938295    -0.67300
O1063       O  0.78190316  0.64984087  0.50234667    -0.67300
O1064       O  0.80837322  0.76162405  0.41694513    -0.67500
V1065       V  0.79523290  0.73155453  0.54677680     1.35200
V1066       V  0.79571250  0.70627789  0.46258457     1.35200
C1067       C  0.80727571  0.79365741  0.44663579     0.82000
C1068       C  0.78015030  0.64376520  0.56016036     0.82000
C1069       C  0.86894575  0.71328834  0.50204146     0.81900
C1070       C  0.72124536  0.72083192  0.51822920     0.81900
N1071       N  0.63422367  0.52092437  0.47539367     0.01000
C1072       C  0.65141408  0.51680581  0.52678083     0.03600
C1073       C  0.63405254  0.47988587  0.56372271    -0.19200
C1074       C  0.60471284  0.46167689  0.53443273    -0.19500
C1075       C  0.60515525  0.48783300  0.48014941     0.03500
H1076       H  0.64216719  0.46722768  0.60675418     0.17300
H1077       H  0.58918743  0.93045509  0.55041635     0.17400
N1078       N  0.73468756  0.57840054  0.60756954     0.01000
C1079       C  0.73210665  0.55829207  0.66513017     0.03600
C1080       C  0.76699737  0.56544754  0.68739880    -0.19200
C1081       C  0.79221454  0.59213173  0.64199387    -0.19500
C1082       C  0.77151161  0.60095745  0.59404521     0.03500
H1083       H  0.77211926  0.55619850  0.73396136     0.17300
H1084       H  0.82044805  0.60854043  0.64752410     0.17400
C1085       C  0.64832641  0.55133032  0.42442901    -0.08800
C1086       C  0.69563485  0.54294229  0.70527282    -0.10300
C1087       C  0.68296536  0.54663076  0.54292035    -0.08800
C1088       C  0.70800126  0.56570999  0.56746995    -0.10300
C1089       C  0.62817560  0.78612114  0.45490869    -0.08800
C1090       C  0.64824177  0.77364361  0.49104338    -0.10300
C1091       C  0.61760200  0.77820524  0.63071977    -0.08800
C1092       C  0.61858088  0.84029931  0.33833270    -0.10300
C1093       C  0.92954326  0.64697472  0.46129898    -0.08800
C1094       C  0.94370105  0.63529982  0.41305077    -0.10300
C1095       C  0.97652236  0.60791047  0.62478810    -0.08800
C1096       C  0.96225364  0.62949458  0.58692836    -0.10300
C1097       C  0.84393255  0.91524872  0.49364044    -0.08800
C1098       C  0.86603316  0.92662215  0.52784255    -0.10300
C1099       C  0.86616980  0.88105673  0.36139435    -0.08800
C1100       C  0.88820847  0.89710377  0.31368159    -0.10300
N1101       N  0.84828217  0.87330124  0.76060125     0.01000
C1102       C  0.83767481  0.90498389  0.79393108     0.03600
C1103       C  0.79786678  0.89930092  0.81662273    -0.19200
C1104       C  0.78344505  0.86145065  0.79857475    -0.19500
C1105       C  0.81543702  0.84416335  0.76847109     0.03500
H1106       H  0.78222013  0.91714104  0.84998939     0.17300
H1107       H  0.75459963  0.84415682  0.81794656     0.17400
N1108       N  0.91605642  0.92620175  0.59891401     0.01000
C1109       C  0.92488601  0.95970897  0.87379558     0.03600
C1110       C  0.95129375  0.99319176  0.84243401    -0.19200
C1111       C  0.98331172  0.99518648  0.87232087    -0.19500
C1112       C  0.95392893  0.94577241  0.59030402     0.03500
H1113       H  0.94761101  0.01365954  0.80204922     0.17300
H1114       H  0.00942031  0.01856422  0.86082433     0.17400
N1115       N  0.93184364  0.67274270  0.84651533     0.01000
C1116       C  0.95540324  0.67790613  0.89028751     0.03600
C1117       C  0.95961354  0.71951836  0.90260756    -0.19200
C1118       C  0.93724484  0.74052669  0.86633490    -0.19500
C1119       C  0.91847202  0.71087232  0.83426123     0.03500
H1120       H  0.97516178  0.73262735  0.93704671     0.17300
H1121       H  0.93010684  0.77247195  0.87113913     0.17400
N1122       N  0.99434365  0.59319637  0.67576919     0.01000
C1123       C  0.99725639  0.61998070  0.71954439     0.03600
C1124       C  0.03473425  0.62551936  0.73345900    -0.19200
C1125       C  0.55306298  0.60626139  0.68772018    -0.19500
C1126       C  0.02962213  0.57695555  0.66820808     0.03500
H1127       H  0.04458786  0.64327660  0.76910888     0.17300
H1128       H  0.58221726  0.59874933  0.69347342     0.17400
N1129       N  0.66840414  0.76298633  0.88576261     0.01000
C1130       C  0.64773023  0.76127437  0.94427612     0.04800
C1131       C  0.64867646  0.72267444  0.97748405    -0.19200
C1132       C  0.67160220  0.70033430  0.93852310    -0.19500
C1133       C  0.68550903  0.72654764  0.88309164     0.03500
H1134       H  0.61939457  0.69063730  0.66971048     0.17300
H1135       H  0.68296501  0.67138615  0.95348756     0.17400
N1136       N  0.58842572  0.81434730  0.72709332     0.01000
C1137       C  0.59093659  0.79064159  0.78045788     0.03600
C1138       C  0.55578095  0.78480152  0.82134308    -0.19200
C1139       C  0.53073387  0.80758819  0.79362299    -0.19500
C1140       C  0.55215940  0.82800575  0.73768159     0.03500
H1141       H  0.55047484  0.77004558  0.86896901     0.17300
H1142       H  0.50268847  0.81481909  0.81721034     0.17400
O1143       O  0.97293452  0.94279319  0.68948062    -0.67300
O1144       O  0.55520440  0.95993061  0.79198043    -0.67500
O1145       O  0.50796732  0.51474272  0.71920384    -0.67300
O1146       O  0.52035229  0.88963175  0.75463100    -0.67300
O1147       O  0.58182249  0.91797575  0.01551540    -0.67300
O1148       O  0.56878380  0.53590883  0.98691367    -0.67300
O1149       O  0.61100263  0.49056155  0.05607826    -0.67300
O1150       O  0.53868411  0.96615926  0.94762476    -0.67500
V1151       V  0.51690989  0.94877027  0.74013192     1.35200
V1152       V  0.57358736  0.97719233  0.00418845     1.35200
C1153       C  0.98297594  0.94281961  0.63190652     0.82000
C1154       C  0.58750109  0.47564371  0.76698339     0.82000
C1155       C  0.52838907  0.53647000  0.67115830     0.81900
C1156       C  0.54618090  0.87281244  0.72062424     0.81900
O1157       O  0.81720500  0.78981575  0.84971937    -0.67300
O1158       O  0.78932449  0.67506341  0.92367433    -0.67500
O1159       O  0.85671353  0.72530386  0.88059577    -0.67300
O1160       O  0.75032992  0.74043152  0.89829020    -0.67300
O1161       O  0.74439810  0.71497791  0.81133549    -0.67300
O1162       O  0.85773446  0.70769190  0.78725331    -0.67300
O1163       O  0.79038697  0.65380798  0.83220081    -0.67300
O1164       O  0.81069463  0.76941950  0.75972217    -0.67500
V1165       V  0.80348044  0.73221468  0.88590159     1.35200
V1166       V  0.80107022  0.71207428  0.79874701     1.35200
C1167       C  0.81630948  0.79931324  0.79247597     0.82000
C1168       C  0.78545886  0.64489575  0.89026490     0.82000
C1169       C  0.87592629  0.71427235  0.83259543     0.81900
C1170       C  0.72846977  0.72840579  0.86113756     0.81900
N1171       N  0.64592141  0.51476334  0.80487127     0.01000
C1172       C  0.65883815  0.51412162  0.86026571     0.03600
C1173       C  0.63825443  0.48020260  0.90043651    -0.19200
C1174       C  0.61128825  0.46011248  0.86891859    -0.19500
C1175       C  0.61599621  0.48253451  0.81060787     0.03500
H1176       H  0.64287476  0.47069100  0.94708052     0.17300
H1177       H  0.59253381  0.93021370  0.89238426     0.17400
N1178       N  0.74004059  0.58099956  0.94018067     0.01000
C1179       C  0.74013073  0.56145421  0.99752009     0.03600
C1180       C  0.77753015  0.56550407  0.01216938    -0.19200
C1181       C  0.80140001  0.58965933  0.96241441    -0.19500
C1182       C  0.77753567  0.60063114  0.91972689     0.03500
H1183       H  0.78565208  0.55662063  0.05688578     0.17300
H1184       H  0.83128143  0.60416610  0.96261729     0.17400
C1185       C  0.66980064  0.53150979  0.74872022    -0.08800
C1186       C  0.70554323  0.55210642  0.04478282    -0.10300
C1187       C  0.68966828  0.54422233  0.87715075    -0.08800
C1188       C  0.71346389  0.56458483  0.90233394    -0.10300
C1189       C  0.62743436  0.78439144  0.80161308    -0.08800
C1190       C  0.65046573  0.77722113  0.83599728    -0.10300
C1191       C  0.63165178  0.79669017  0.97316003    -0.08800
C1192       C  0.60402957  0.79912640  0.67080095    -0.10300
C1193       C  0.94475039  0.64987897  0.79728000    -0.08800
C1194       C  0.96430944  0.63467568  0.75657369    -0.10300
C1195       C  0.98499771  0.62499350  0.96661895    -0.08800
C1196       C  0.97122321  0.64437773  0.92597547    -0.10300
C1197       C  0.86533545  0.92896795  0.82355430    -0.08800
C1198       C  0.89051370  0.94367114  0.85023817    -0.10300
C1199       C  0.87399758  0.88486474  0.70259559    -0.08800
C1200       C  0.89424919  0.90148653  0.65359106    -0.10300
loop_ 
_geom_bond_atom_site_label_1 
_geom_bond_atom_site_label_2 
_geom_bond_distance 
_geom_bond_site_symmetry_2 
_ccdc_geom_bond_type 
N1            C5   1.358       .  A
N1            C2   1.350       .  A
N1           C99   1.414       .  S
C2            C3   1.373       .  A
C2           C97   1.443       .  S
C3            C4   1.378       .  A
C3            H6   1.082       .  S
C4            C5   1.396       .  A
C4            H7   1.084       .  S
C5           C67   1.484       .  S
N8           C12   1.355       .  A
N8          C209   1.355       .  A
N8          C100   1.415       .  S
C9          N108   1.364       .  A
C9           C10   1.375       .  A
C9           C98   1.437       .  S
C10          C11   1.361       .  A
C10          H13   1.083       .  S
C11         C112   1.379       .  A
C11          H14   1.079       .  S
C12         C211   1.383       .  A
C12          C53   1.462       .  S
N15          C19   1.360       .  A
N15          C16   1.359       .  A
N15          C93   1.405       .  S
C16          C17   1.379       .  A
C16          C96   1.469       .  S
C17          C18   1.386       .  A
C17          H20   1.083       .  S
C18          C19   1.390       .  A
C18          H21   1.083       .  S
C19          C69   1.489       .  S
N22          C26   1.367       .  A
N22          C23   1.354       .  A
N22         C295   1.423   1_554  S
C23          C24   1.373       .  A
C23          C94   1.443       .  S
C24         C625   1.373       .  A
C24          H27   1.083       .  S
C25         C624   1.375       .  A
C25         C626   1.388       .  A
C25          H28   1.083       .  S
C26         C625   1.389       .  A
C26         C655   1.486       .  S
N29          C33   1.362       .  A
N29          C30   1.361       .  A
N29          C90   1.410       .  S
C30          C31   1.375       .  A
C30          C91   1.453       .  S
C31          C32   1.372       .  A
C31         H134   1.083       .  S
C32          C33   1.390       .  A
C32          H35   1.083       .  S
C33          C70   1.494       .  S
H34         C231   1.083   1_554  S
N36          C40   1.369       .  A
N36          C37   1.360       .  A
N36          C92   1.419       .  S
C37          C38   1.374       .  A
C37          C89   1.450       .  S
C38          C39   1.368       .  A
C38          H41   1.083       .  S
C39          C40   1.390       .  A
C39          H42   1.083       .  S
C40          C56   1.501       .  S
O43          C53   1.258   1_554  A
O43         V651   1.898       .  S
O44         C354   1.265       .  A
O44          V51   1.904       .  S
O45          C55   1.266       .  A
O45         V351   1.909   1_545  S
O46          C56   1.268       .  A
O46          V51   1.898       .  S
O47         C156   1.259       .  A
O47          V52   1.896       .  S
O48         C155   1.259       .  A
O48         V352   1.895   1_545  S
O49         C154   1.263       .  A
O49         V352   1.919       .  S
O50         C753   1.268   1_455  A
O50          V52   1.892       .  S
V51         O643   1.899   1_455  S
V51         O345   1.909       .  S
V51         V252   2.084       .  T
V52         O348   1.894       .  S
V52         O349   1.919       .  S
V52         V151   2.083       .  T
C53         O850   1.262       .  A
C54          C75   1.476   1_565  S
C54         O344   1.264       .  A
C54         O249   1.263       .  A
C55         C626   1.483       .  S
C55         O248   1.267   1_554  A
C56         O247   1.268       .  A
O57          C67   1.263       .  A
O57          V65   1.889       .  S
O58          C68   1.264       .  A
O58          V65   1.886       .  S
O59          C69   1.258       .  A
O59          V65   1.888       .  S
O60          C70   1.263       .  A
O60          V65   1.885       .  S
O61          C70   1.272       .  A
O61          V66   1.943       .  S
O62          C69   1.276       .  A
O62          V66   1.932       .  S
O63          C68   1.257       .  A
O63          V66   1.884       .  S
O64          C67   1.267       .  A
O64          V66   1.907       .  S
V65          V66   2.087       .  T
C68          C82   1.451       .  S
N71          C75   1.355       .  A
N71          C72   1.356       .  A
N71          C85   1.401       .  S
C72          C73   1.372       .  A
C72          C87   1.450       .  S
C73          C74   1.375   1_545  A
C73          H76   1.076       .  S
C74          C75   1.376   1_565  A
C74         H377   1.077       .  S
H77         C374   1.075       .  S
N78          C82   1.353       .  A
N78          C79   1.349       .  A
N78          C88   1.415       .  S
C79          C80   1.375       .  A
C79          C86   1.424       .  S
C80          C81   1.369       .  A
C80          H83   1.082       .  S
C81          C82   1.377       .  A
C81          H84   1.079       .  S
C85         C286   1.203       .  T
C86         C185   1.195       .  T
C87          C88   1.214       .  T
C89          C90   1.212       .  T
C91         C192   1.214       .  T
C92         C291   1.221   1_554  T
C93          C94   1.207       .  T
C95         N122   1.422       .  S
C95          C96   1.223       .  T
C97          C98   1.207       .  T
C99         C100   1.215   1_554  T
N101        C105   1.356       .  A
N101        C102   1.351       .  A
N101        C199   1.422       .  S
C102        C103   1.374       .  A
C102        C197   1.435       .  S
C103        C104   1.371       .  A
C103        H106   1.083       .  S
C104        C105   1.390       .  A
C104        H107   1.084       .  S
C105        C167   1.476       .  S
N108        C112   1.364       .  A
N108        C200   1.423       .  S
C109        N208   1.361       .  A
C109        C110   1.375       .  A
C109        C198   1.431       .  S
C110        C111   1.363       .  A
C110        H113   1.083       .  S
C111        C212   1.380       .  A
C111        H114   1.079       .  S
C112        C153   1.470       .  S
N115        C119   1.359       .  A
N115        C116   1.366       .  A
N115        C193   1.400       .  S
C116        C117   1.376       .  A
C116        C196   1.468       .  S
C117        C118   1.372       .  A
C117        H120   1.082       .  S
C118        C119   1.390       .  A
C118        H121   1.083       .  S
C119        C169   1.491       .  S
N122        C126   1.360       .  A
N122        C123   1.349       .  A
C123        C124   1.379       .  A
C123        C194   1.436       .  S
C124        C725   1.368       .  A
C124        H127   1.083       .  S
C125        C724   1.370       .  A
C125        C726   1.383       .  A
C125        H128   1.084       .  S
C126        C725   1.381       .  A
C126        C755   1.469       .  S
N129        C133   1.354       .  A
N129        C130   1.356       .  A
N129        C190   1.397       .  S
C130        C131   1.375       .  A
C130        C191   1.461       .  S
C131        C132   1.377       .  A
C131        H234   1.083       .  S
C132        C133   1.390       .  A
C132        H135   1.083       .  S
C133        C170   1.468       .  S
N136        C140   1.357       .  A
N136        C137   1.347       .  A
N136        C192   1.414       .  S
C137        C138   1.378       .  A
C137        C189   1.433       .  S
C138        C139   1.371       .  A
C138        H141   1.083       .  S
C139        C140   1.385       .  A
C139        H142   1.083       .  S
C140        C156   1.466       .  S
O143        C153   1.260       .  A
O143        V751   1.905       .  S
O144        C454   1.261       .  A
O144        V151   1.907       .  S
O145        C155   1.267   1_655  A
O145        V451   1.908   1_645  S
O146        C156   1.266       .  A
O146        V151   1.893       .  S
O147        C256   1.263       .  A
O147        V152   1.913       .  S
O148        C255   1.263       .  A
O148        V452   1.908   1_545  S
O149        C254   1.268       .  A
O149        V452   1.929       .  S
O150        C853   1.269   1_455  A
O150        V152   1.902       .  S
V151        O743   1.898   1_455  S
V151        O445   1.909   1_455  S
V152        O448   1.907       .  S
V152        O449   1.932       .  S
V152        V251   2.084       .  T
C153        O650   1.267       .  A
C154        C175   1.492       .  S
C154        O444   1.264       .  A
C155        C726   1.467       .  S
O157        C167   1.268       .  A
O157        V165   1.898       .  S
O158        C168   1.271       .  A
O158        V165   1.900       .  S
O159        C169   1.255       .  A
O159        V165   1.865       .  S
O160        C170   1.252       .  A
O160        V165   1.864       .  S
O161        C170   1.271       .  A
O161        V166   1.937       .  S
O162        C169   1.278       .  A
O162        V166   1.952       .  S
O163        C168   1.255       .  A
O163        V166   1.895       .  S
O164        C167   1.262       .  A
O164        V166   1.909       .  S
V165        V166   2.082       .  T
C168        C182   1.464       .  S
N171        C175   1.355   1_545  A
N171        C172   1.357       .  A
N171        C185   1.393       .  S
C172        C173   1.380   1_545  A
C172        C187   1.473       .  S
C173        C174   1.386       .  A
C173        H176   1.081       .  S
C174        C175   1.383       .  A
C174        H477   1.081       .  S
H177        C474   1.081       .  S
N178        C182   1.363       .  A
N178        C179   1.345       .  A
N178        C188   1.424       .  S
C179        C180   1.374       .  A
C179        C186   1.424       .  S
C180        C181   1.367       .  A
C180        H183   1.083       .  S
C181        C182   1.387       .  A
C181        H184   1.083       .  S
C186        C285   1.195       .  T
C187        C188   1.225       .  T
C189        C190   1.201       .  T
C191        C292   1.219       .  T
C193        C194   1.204       .  T
C195        N222   1.425       .  S
C195        C196   1.225       .  T
C197        C198   1.203       .  T
C199        C200   1.223       .  T
N201        C205   1.360       .  A
N201        C202   1.350       .  A
N201        C299   1.423       .  S
C202        C203   1.371       .  A
C202        C297   1.430       .  S
C203        C204   1.369       .  A
C203        H206   1.083       .  S
C204        C205   1.390       .  A
C204        H207   1.084       .  S
C205        C267   1.479       .  S
N208        C212   1.361       .  A
N208        C300   1.424       .  S
C209        C210   1.373       .  A
C209        C298   1.430       .  S
C210        C211   1.370       .  A
C210        H213   1.081       .  S
C211        H214   1.083       .  S
C212        C253   1.463       .  S
N215        C219   1.364       .  A
N215        C216   1.363       .  A
N215        C293   1.402       .  S
C216        C217   1.373       .  A
C216        C296   1.468       .  S
C217        C218   1.373       .  A
C217        H220   1.082       .  S
C218        C219   1.393       .  A
C218        H221   1.083       .  S
C219        C269   1.492       .  S
N222        C226   1.368       .  A
N222        C223   1.352       .  A
C223        C224   1.372       .  A
C223        C294   1.440       .  S
C224        C825   1.367       .  A
C224        H227   1.083       .  S
C225        C824   1.367       .  A
C225        C826   1.387       .  A
C225        H228   1.084       .  S
C226        C825   1.387       .  A
C226        C855   1.479       .  S
N229        C233   1.361       .  A
N229        C230   1.360       .  A
N229        C290   1.401       .  S
C230        C231   1.373       .  A
C230        C291   1.465       .  S
C231        C232   1.375       .  A
C232        C233   1.392       .  A
C232        H235   1.083       .  S
C233        C270   1.479       .  S
N236        C240   1.363       .  A
N236        C237   1.351       .  A
N236        C292   1.418       .  S
C237        C238   1.374       .  A
C237        C289   1.438       .  S
C238        C239   1.366       .  A
C238        H241   1.083       .  S
C239        C240   1.389       .  A
C239        H242   1.083       .  S
C240        C256   1.484       .  S
O243        C253   1.256       .  A
O243        V851   1.891       .  S
O244        C554   1.264       .  A
O244        V251   1.902       .  S
O245        C255   1.266       .  A
O245        V551   1.907   1_545  S
O246        C256   1.269       .  A
O246        V251   1.898       .  S
O247        V252   1.936       .  S
O248        V552   1.918   1_546  S
O249        V552   1.911       .  S
O250        C653   1.262       .  A
O250        V252   1.891   1_556  S
V251        O843   1.891   1_455  S
V251        O545   1.910       .  S
V252        O548   1.921   1_554  S
V252        O549   1.908       .  S
C253        O750   1.268       .  A
C254        C275   1.491       .  S
C254        O544   1.263       .  A
C255        C826   1.478       .  S
O257        C267   1.269       .  A
O257        V265   1.904       .  S
O258        C268   1.270       .  A
O258        V265   1.903       .  S
O259        C269   1.255       .  A
O259        V265   1.863       .  S
O260        C270   1.253       .  A
O260        V265   1.864       .  S
O261        C270   1.277       .  A
O261        V266   1.947       .  S
O262        C269   1.279       .  A
O262        V266   1.956       .  S
O263        C268   1.258       .  A
O263        V266   1.901       .  S
O264        C267   1.262       .  A
O264        V266   1.911       .  S
V265        V266   2.085       .  T
C268        C282   1.470       .  S
N271        C275   1.354   1_545  A
N271        C272   1.358       .  A
N271        C285   1.392       .  S
C272        C273   1.377   1_545  A
C272        C287   1.468       .  S
C273        C274   1.382       .  A
C273        H276   1.081       .  S
C274        C275   1.381       .  A
C274        H577   1.081       .  S
H277        C574   1.081       .  S
N278        C282   1.360       .  A
N278        C279   1.350       .  A
N278        C288   1.422       .  S
C279        C280   1.375   1_556  A
C279        C286   1.435   1_556  S
C280        C281   1.370   1_554  A
C280        H283   1.083       .  S
C281        C282   1.387       .  A
C281        H284   1.083       .  S
C287        C288   1.222       .  T
C289        C290   1.205       .  T
C293        C294   1.205       .  T
C295        C296   1.223       .  T
C297        C298   1.200       .  T
C299        C300   1.223       .  T
N301        C305   1.357       .  A
N301        C302   1.352       .  A
N301        C399   1.414       .  S
C302        C303   1.372       .  A
C302        C397   1.442       .  S
C303        C304   1.376       .  A
C303        H306   1.083       .  S
C304        C305   1.395       .  A
C304        H307   1.083       .  S
C305        C367   1.481       .  S
N308        C312   1.355       .  A
N308        C509   1.354       .  A
N308        C400   1.415       .  S
C309        N408   1.363       .  A
C309        C310   1.376       .  A
C309        C398   1.434       .  S
C310        C311   1.360       .  A
C310        H313   1.083       .  S
C311        C412   1.380       .  A
C311        H314   1.080       .  S
C312        C511   1.384       .  A
C312        C353   1.462       .  S
N315        C319   1.363       .  A
N315        C316   1.358       .  A
N315        C393   1.406       .  S
C316        C317   1.377       .  A
C316        C396   1.467       .  S
C317        C318   1.384       .  A
C317        H320   1.082       .  S
C318        C319   1.390       .  A
C318        H321   1.083       .  S
C319        C369   1.489       .  S
N322        C326   1.364       .  A
N322        C323   1.353       .  A
N322        C595   1.419   1_554  S
C323        C324   1.374       .  A
C323        C394   1.444       .  S
C324        C925   1.375       .  A
C324        H327   1.082       .  S
C325        C924   1.373       .  A
C325        C926   1.389       .  A
C325        H328   1.083       .  S
C326        C925   1.388       .  A
C326        C955   1.483       .  S
N329        C333   1.361       .  A
N329        C330   1.362       .  A
N329        C390   1.410       .  S
C330        C331   1.375       .  A
C330        C391   1.452       .  S
C331        C332   1.371       .  A
C331        H434   1.083       .  S
C332        C333   1.390       .  A
C332        H335   1.083       .  S
C333        C370   1.493       .  S
H334        C531   1.083   1_554  S
N336        C340   1.368       .  A
N336        C337   1.360       .  A
N336        C392   1.417       .  S
C337        C338   1.374       .  A
C337        C389   1.450       .  S
C338        C339   1.369       .  A
C338        H341   1.083       .  S
C339        C340   1.390       .  A
C339        H342   1.083       .  S
C340        C356   1.500       .  S
O343        C353   1.259   1_554  A
O343        V951   1.898       .  S
O344        V351   1.899       .  S
O345        C355   1.267       .  A
O346        C356   1.268       .  A
O346        V351   1.898       .  S
O347        C456   1.259       .  A
O347        V352   1.895       .  S
O348        C455   1.259       .  A
O349        C454   1.263       .  A
O350       C1053   1.268   1_455  A
O350        V352   1.895       .  S
V351        O943   1.899   1_455  S
V351        V552   2.083       .  T
V352        V451   2.083       .  T
C353       O1150   1.262       .  A
C354        C375   1.479       .  S
C354        O549   1.263       .  A
C355        C926   1.486       .  S
C355        O548   1.268   1_554  A
C356        O547   1.268       .  A
O357        C367   1.264       .  A
O357        V365   1.892       .  S
O358        C368   1.266       .  A
O358        V365   1.889       .  S
O359        C369   1.257       .  A
O359        V365   1.887       .  S
O360        C370   1.262       .  A
O360        V365   1.880       .  S
O361        C370   1.273       .  A
O361        V366   1.946       .  S
O362        C369   1.276       .  A
O362        V366   1.934       .  S
O363        C368   1.257       .  A
O363        V366   1.891       .  S
O364        C367   1.267       .  A
O364        V366   1.906       .  S
V365        V366   2.086       .  T
C368        C382   1.456       .  S
N371        C375   1.353       .  A
N371        C372   1.356       .  A
N371        C385   1.400       .  S
C372        C373   1.375       .  A
C372        C387   1.456       .  S
C373        C374   1.379       .  A
C373        H376   1.079       .  S
C374        C375   1.378       .  A
N378        C382   1.357       .  A
N378        C379   1.350       .  A
N378        C388   1.417       .  S
C379        C380   1.375       .  A
C379        C386   1.425       .  S
C380        C381   1.367       .  A
C380        H383   1.082       .  S
C381        C382   1.380       .  A
C381        H384   1.080       .  S
C385        C586   1.202       .  T
C386        C485   1.195       .  T
C387        C388   1.216       .  T
C389        C390   1.212       .  T
C391        C492   1.213       .  T
C392        C591   1.219   1_554  T
C393        C394   1.208       .  T
C395        N422   1.421       .  S
C395        C396   1.222       .  T
C397        C398   1.206       .  T
C399        C400   1.215   1_554  T
N401        C405   1.354       .  A
N401        C402   1.351       .  A
N401        C499   1.423       .  S
C402        C403   1.374       .  A
C402        C497   1.434       .  S
C403        C404   1.372       .  A
C403        H406   1.083       .  S
C404        C405   1.390       .  A
C404        H407   1.084       .  S
C405        C467   1.474       .  S
N408        C412   1.363       .  A
N408        C500   1.424       .  S
C409        N508   1.361       .  A
C409        C410   1.372       .  A
C409        C498   1.429       .  S
C410        C411   1.360       .  A
C410        H413   1.082       .  S
C411        C512   1.378       .  A
C411        H414   1.076       .  S
C412        C453   1.466       .  S
N415        C419   1.359       .  A
N415        C416   1.365       .  A
N415        C493   1.400       .  S
C416        C417   1.375       .  A
C416        C496   1.467       .  S
C417        C418   1.371       .  A
C417        H420   1.082       .  S
C418        C419   1.391       .  A
C418        H421   1.083       .  S
C419        C469   1.490       .  S
N422        C426   1.358       .  A
N422        C423   1.347       .  A
C423        C424   1.379       .  A
C423        C494   1.435       .  S
C424       C1025   1.370       .  A
C424        H427   1.083       .  S
C425       C1024   1.368       .  A
C425       C1026   1.381       .  A
C425        H428   1.083       .  S
C426       C1025   1.383       .  A
C426       C1055   1.467       .  S
N429        C433   1.358       .  A
N429        C430   1.357       .  A
N429        C490   1.400       .  S
C430        C431   1.373       .  A
C430        C491   1.459       .  S
C431        C432   1.374       .  A
C431        H534   1.083       .  S
C432        C433   1.390       .  A
C432        H435   1.083       .  S
C433        C470   1.471       .  S
N436        C440   1.356       .  A
N436        C437   1.348       .  A
N436        C492   1.414       .  S
C437        C438   1.379       .  A
C437        C489   1.436       .  S
C438        C439   1.373       .  A
C438        H441   1.083       .  S
C439        C440   1.386       .  A
C439        H442   1.083   1_455  S
C440        C456   1.467       .  S
O443        C453   1.258       .  A
O443       V1051   1.899       .  S
O444        V451   1.915       .  S
O445        C455   1.268   1_655  A
O446        C456   1.266       .  A
O446        V451   1.893       .  S
O447        C556   1.264       .  A
O447        V452   1.915       .  S
O448        C555   1.262       .  A
O449        C554   1.268       .  A
O450       C1153   1.268   1_455  A
O450        V452   1.903       .  S
V451       O1043   1.905   1_455  S
V452        V551   2.085       .  T
C453        O950   1.268       .  A
C454        C475   1.485       .  S
C455       C1026   1.469       .  S
O457        C467   1.268       .  A
O457        V465   1.896       .  S
O458        C468   1.270       .  A
O458        V465   1.900       .  S
O459        C469   1.254       .  A
O459        V465   1.862       .  S
O460        C470   1.253       .  A
O460        V465   1.864       .  S
O461        C470   1.272       .  A
O461        V466   1.939       .  S
O462        C469   1.278       .  A
O462        V466   1.952       .  S
O463        C468   1.257       .  A
O463        V466   1.899       .  S
O464        C467   1.261       .  A
O464        V466   1.908       .  S
V465        V466   2.085       .  T
C468        C482   1.466       .  S
N471        C475   1.353       .  A
N471        C472   1.355       .  A
N471        C485   1.393       .  S
C472        C473   1.379       .  A
C472        C487   1.467       .  S
C473        C474   1.384       .  A
C473        H476   1.080       .  S
C474        C475   1.383       .  A
N478        C482   1.361       .  A
N478        C479   1.347       .  A
N478        C488   1.420       .  S
C479        C480   1.375       .  A
C479        C486   1.429       .  S
C480        C481   1.369       .  A
C480        H483   1.083       .  S
C481        C482   1.386       .  A
C481        H484   1.083       .  S
C486        C585   1.199       .  T
C487        C488   1.221       .  T
C489        C490   1.203       .  T
C491        C592   1.217       .  T
C493        C494   1.203       .  T
C495        N522   1.424       .  S
C495        C496   1.224       .  T
C497        C498   1.202       .  T
C499        C500   1.224       .  T
N501        C505   1.357       .  A
N501        C502   1.351       .  A
N501        C599   1.421       .  S
C502        C503   1.372       .  A
C502        C597   1.430       .  S
C503        C504   1.370       .  A
C503        H506   1.083       .  S
C504        C505   1.390       .  A
C504        H507   1.084       .  S
C505        C567   1.475       .  S
N508        C512   1.362       .  A
N508        C600   1.422       .  S
C509        C510   1.372       .  A
C509        C598   1.430       .  S
C510        C511   1.371       .  A
C510        H513   1.082   1_565  S
C511        H514   1.083   1_565  S
C512        C553   1.464       .  S
N515        C519   1.362       .  A
N515        C516   1.362       .  A
N515        C593   1.402       .  S
C516        C517   1.373       .  A
C516        C596   1.463       .  S
C517        C518   1.371       .  A
C517        H520   1.082       .  S
C518        C519   1.391       .  A
C518        H521   1.083       .  S
C519        C569   1.488       .  S
N522        C526   1.367       .  A
N522        C523   1.351       .  A
C523        C524   1.372       .  A
C523        C594   1.439       .  S
C524       C1125   1.367       .  A
C524        H527   1.083       .  S
C525       C1124   1.367       .  A
C525       C1126   1.387       .  A
C525        H528   1.084       .  S
C526       C1125   1.387       .  A
C526       C1155   1.478       .  S
N529        C533   1.362       .  A
N529        C530   1.359       .  A
N529        C590   1.404       .  S
C530        C531   1.373       .  A
C530        C591   1.462       .  S
C531        C532   1.374       .  A
C532        C533   1.392       .  A
C532        H535   1.084       .  S
C533        C570   1.479       .  S
N536        C540   1.363       .  A
N536        C537   1.353       .  A
N536        C592   1.416       .  S
C537        C538   1.374       .  A
C537        C589   1.441       .  S
C538        C539   1.367       .  A
C538        H541   1.083       .  S
C539        C540   1.389       .  A
C539        H542   1.083       .  S
C540        C556   1.482       .  S
O543        C553   1.255       .  A
O543       V1151   1.891       .  S
O544        V551   1.901       .  S
O545        C555   1.267       .  A
O546        C556   1.267       .  A
O546        V551   1.894       .  S
O547        V552   1.935       .  S
O550        C953   1.262       .  A
O550        V552   1.893   1_556  S
V551       O1143   1.891   1_455  S
C553       O1050   1.269       .  A
C554        C575   1.494       .  S
C555       C1126   1.479       .  S
O557        C567   1.268       .  A
O557        V565   1.899       .  S
O558        C568   1.270       .  A
O558        V565   1.900       .  S
O559        C569   1.255       .  A
O559        V565   1.865       .  S
O560        C570   1.255       .  A
O560        V565   1.868       .  S
O561        C570   1.275       .  A
O561        V566   1.943       .  S
O562        C569   1.277       .  A
O562        V566   1.951       .  S
O563        C568   1.259       .  A
O563        V566   1.904       .  S
O564        C567   1.262       .  A
O564        V566   1.911       .  S
V565        V566   2.085       .  T
C568        C582   1.471       .  S
N571        C575   1.357       .  A
N571        C572   1.360       .  A
N571        C585   1.395       .  S
C572        C573   1.377       .  A
C572        C587   1.469       .  S
C573        C574   1.382       .  A
C573        H576   1.081       .  S
C574        C575   1.382       .  A
N578        C582   1.362       .  A
N578        C579   1.351       .  A
N578        C588   1.423       .  S
C579        C580   1.374   1_556  A
C579        C586   1.434   1_556  S
C580        C581   1.368   1_554  A
C580        H583   1.083       .  S
C581        C582   1.388       .  A
C581        H584   1.083       .  S
C587        C588   1.223       .  T
C589        C590   1.207       .  T
C593        C594   1.205       .  T
C595        C596   1.220       .  T
C597        C598   1.200       .  T
C599        C600   1.222       .  T
N601        C605   1.357       .  A
N601        C602   1.352       .  A
N601        C699   1.414       .  S
C602        C603   1.372       .  A
C602        C697   1.442       .  S
C603        C604   1.376       .  A
C603        H606   1.083       .  S
C604        C605   1.395       .  A
C604        H607   1.083       .  S
C605        C667   1.481       .  S
N608        C612   1.355       .  A
N608        C809   1.355       .  A
N608        C700   1.415       .  S
C609        N708   1.363       .  A
C609        C610   1.376       .  A
C609        C698   1.434       .  S
C610        C611   1.360       .  A
C610        H613   1.083       .  S
C611        C712   1.380       .  A
C611        H614   1.080       .  S
C612        C811   1.383       .  A
C612        C653   1.462   1_655  S
N615        C619   1.363       .  A
N615        C616   1.358       .  A
N615        C693   1.406       .  S
C616        C617   1.377       .  A
C616        C696   1.467       .  S
C617        C618   1.384       .  A
C617        H620   1.082       .  S
C618        C619   1.390       .  A
C618        H621   1.083       .  S
C619        C669   1.490       .  S
N622        C626   1.364       .  A
N622        C623   1.353       .  A
N622        C895   1.419   1_454  S
C623        C624   1.374       .  A
C623        C694   1.445   1_455  S
C624        H627   1.082       .  S
C625        H628   1.083       .  S
N629        C633   1.361       .  A
N629        C630   1.361       .  A
N629        C690   1.410       .  S
C630        C631   1.375       .  A
C630        C691   1.452       .  S
C631        C632   1.371       .  A
C631        H734   1.083       .  S
C632        C633   1.390       .  A
C632        H635   1.083       .  S
C633        C670   1.493       .  S
H634        C831   1.083   1_554  S
N636        C640   1.368       .  A
N636        C637   1.360       .  A
N636        C692   1.418       .  S
C637        C638   1.374       .  A
C637        C689   1.450       .  S
C638        C639   1.369       .  A
C638        H641   1.083       .  S
C639        C640   1.390       .  A
C639        H642   1.083       .  S
C640        C656   1.500       .  S
O643        C653   1.259   1_654  A
O644        C954   1.264       .  A
O644        V651   1.898       .  S
O645        C655   1.267       .  A
O645        V951   1.909   1_545  S
O646        C656   1.268       .  A
O646        V651   1.898       .  S
O647        C756   1.259       .  A
O647        V652   1.895       .  S
O648        C755   1.259       .  A
O648        V952   1.893   1_545  S
O649        C754   1.263       .  A
O649        V952   1.919       .  S
O650        V652   1.894       .  S
V651        O945   1.909       .  S
V651        V852   2.083       .  T
V652        O948   1.895       .  S
V652        O949   1.919       .  S
V652        V751   2.083       .  T
C654        C675   1.478       .  S
C654        O944   1.265       .  A
C654        O849   1.263       .  A
C655        O848   1.267   1_554  A
C656        O847   1.268       .  A
O657        C667   1.263       .  A
O657        V665   1.892       .  S
O658        C668   1.266       .  A
O658        V665   1.889       .  S
O659        C669   1.257       .  A
O659        V665   1.887       .  S
O660        C670   1.262       .  A
O660        V665   1.880       .  S
O661        C670   1.273       .  A
O661        V666   1.946       .  S
O662        C669   1.276       .  A
O662        V666   1.934       .  S
O663        C668   1.257       .  A
O663        V666   1.891       .  S
O664        C667   1.267       .  A
O664        V666   1.906       .  S
V665        V666   2.086       .  T
C668        C682   1.457       .  S
N671        C675   1.353   1_545  A
N671        C672   1.355       .  A
N671        C685   1.399       .  S
C672        C673   1.375       .  A
C672        C687   1.455       .  S
C673        C674   1.379   1_545  A
C673        H676   1.078       .  S
C674        C675   1.378       .  A
C674        H977   1.075       .  S
H677        C974   1.076       .  S
N678        C682   1.357       .  A
N678        C679   1.350       .  A
N678        C688   1.417       .  S
C679        C680   1.375       .  A
C679        C686   1.425       .  S
C680        C681   1.368       .  A
C680        H683   1.082       .  S
C681        C682   1.380       .  A
C681        H684   1.080       .  S
C685        C886   1.202       .  T
C686        C785   1.196       .  T
C687        C688   1.216       .  T
C689        C690   1.212       .  T
C691        C792   1.213       .  T
C692        C891   1.219   1_554  T
C693        C694   1.208       .  T
C695        N722   1.421       .  S
C695        C696   1.222       .  T
C697        C698   1.206       .  T
C699        C700   1.215   1_554  T
N701        C705   1.354       .  A
N701        C702   1.351       .  A
N701        C799   1.423       .  S
C702        C703   1.374       .  A
C702        C797   1.434       .  S
C703        C704   1.372       .  A
C703        H706   1.083       .  S
C704        C705   1.390       .  A
C704        H707   1.084       .  S
C705        C767   1.473       .  S
N708        C712   1.363       .  A
N708        C800   1.424       .  S
C709        N808   1.361       .  A
C709        C710   1.372       .  A
C709        C798   1.429       .  S
C710        C711   1.360       .  A
C710        H713   1.083       .  S
C711        C812   1.378       .  A
C711        H714   1.076       .  S
C712        C753   1.466       .  S
N715        C719   1.360       .  A
N715        C716   1.365       .  A
N715        C793   1.400       .  S
C716        C717   1.374       .  A
C716        C796   1.467       .  S
C717        C718   1.371       .  A
C717        H720   1.082       .  S
C718        C719   1.391       .  A
C718        H721   1.083       .  S
C719        C769   1.490       .  S
N722        C726   1.358   1_655  A
N722        C723   1.347       .  A
C723        C724   1.379   1_655  A
C723        C794   1.434       .  S
C724        H727   1.083       .  S
C725        H728   1.083       .  S
N729        C733   1.358       .  A
N729        C730   1.357       .  A
N729        C790   1.400       .  S
C730        C731   1.373       .  A
C730        C791   1.459       .  S
C731        C732   1.374       .  A
C731        H834   1.083       .  S
C732        C733   1.390       .  A
C732        H735   1.083       .  S
C733        C770   1.471       .  S
N736        C740   1.356       .  A
N736        C737   1.348       .  A
N736        C792   1.413       .  S
C737        C738   1.379       .  A
C737        C789   1.436       .  S
C738        C739   1.373       .  A
C738        H741   1.083       .  S
C739        C740   1.385       .  A
C739        H742   1.083       .  S
C740        C756   1.467       .  S
O743        C753   1.258       .  A
O744       C1054   1.264       .  A
O744        V751   1.914       .  S
O745        C755   1.268       .  A
O745       V1051   1.909   1_545  S
O746        C756   1.266       .  A
O746        V751   1.893       .  S
O747        C856   1.264       .  A
O747        V752   1.914       .  S
O748        C855   1.262       .  A
O748       V1052   1.907   1_545  S
O749        C854   1.269       .  A
O749       V1052   1.932       .  S
O750        V752   1.903       .  S
V751       O1045   1.908       .  S
V752       O1048   1.908       .  S
V752       O1049   1.929       .  S
V752        V851   2.085       .  T
C754        C775   1.486       .  S
C754       O1044   1.261       .  A
O757        C767   1.268       .  A
O757        V765   1.895       .  S
O758        C768   1.270       .  A
O758        V765   1.899       .  S
O759        C769   1.254       .  A
O759        V765   1.862       .  S
O760        C770   1.253       .  A
O760        V765   1.864       .  S
O761        C770   1.272       .  A
O761        V766   1.938       .  S
O762        C769   1.278       .  A
O762        V766   1.952       .  S
O763        C768   1.257       .  A
O763        V766   1.898       .  S
O764        C767   1.261       .  A
O764        V766   1.908       .  S
V765        V766   2.086       .  T
C768        C782   1.466       .  S
N771        C775   1.353   1_545  A
N771        C772   1.355       .  A
N771        C785   1.393       .  S
C772        C773   1.379   1_545  A
C772        C787   1.467       .  S
C773        C774   1.384       .  A
C773        H776   1.080       .  S
C774        C775   1.383       .  A
C774       H1077   1.081       .  S
H777       C1074   1.081       .  S
N778        C782   1.361       .  A
N778        C779   1.347       .  A
N778        C788   1.420       .  S
C779        C780   1.374       .  A
C779        C786   1.429       .  S
C780        C781   1.369       .  A
C780        H783   1.083       .  S
C781        C782   1.386       .  A
C781        H784   1.083       .  S
C786        C885   1.198       .  T
C787        C788   1.221       .  T
C789        C790   1.203       .  T
C791        C892   1.217       .  T
C793        C794   1.203       .  T
C795        N822   1.424       .  S
C795        C796   1.224       .  T
C797        C798   1.202       .  T
C799        C800   1.224       .  T
N801        C805   1.358       .  A
N801        C802   1.351       .  A
N801        C899   1.421       .  S
C802        C803   1.372       .  A
C802        C897   1.430       .  S
C803        C804   1.370       .  A
C803        H806   1.083       .  S
C804        C805   1.390       .  A
C804        H807   1.084       .  S
C805        C867   1.475       .  S
N808        C812   1.362       .  A
N808        C900   1.422       .  S
C809        C810   1.372       .  A
C809        C898   1.430       .  S
C810        C811   1.371       .  A
C810        H813   1.082       .  S
C811        H814   1.083   1_655  S
C812        C853   1.464       .  S
N815        C819   1.363       .  A
N815        C816   1.363       .  A
N815        C893   1.402       .  S
C816        C817   1.373       .  A
C816        C896   1.463       .  S
C817        C818   1.371       .  A
C817        H820   1.082       .  S
C818        C819   1.391       .  A
C818        H821   1.083       .  S
C819        C869   1.488       .  S
N822        C826   1.367   1_655  A
N822        C823   1.351       .  A
C823        C824   1.373   1_655  A
C823        C894   1.440       .  S
C824        H827   1.083       .  S
C825        H828   1.084       .  S
N829        C833   1.362       .  A
N829        C830   1.359       .  A
N829        C890   1.404       .  S
C830        C831   1.373       .  A
C830        C891   1.463       .  S
C831        C832   1.374       .  A
C832        C833   1.392       .  A
C832        H835   1.084       .  S
C833        C870   1.479       .  S
N836        C840   1.363       .  A
N836        C837   1.353       .  A
N836        C892   1.416       .  S
C837        C838   1.374       .  A
C837        C889   1.441       .  S
C838        C839   1.367       .  A
C838        H841   1.083       .  S
C839        C840   1.389       .  A
C839        H842   1.083       .  S
C840        C856   1.482       .  S
O843        C853   1.255       .  A
O844       C1154   1.263       .  A
O844        V851   1.901       .  S
O845        C855   1.267       .  A
O845       V1151   1.911   1_545  S
O846        C856   1.267       .  A
O846        V851   1.894       .  S
O847        V852   1.935       .  S
O848       V1152   1.921   1_546  S
O849       V1152   1.907       .  S
O850        V852   1.893   1_556  S
V851       O1145   1.907       .  S
V852       O1148   1.918   1_554  S
V852       O1149   1.911       .  S
C854        C875   1.494       .  S
C854       O1144   1.264       .  A
O857        C867   1.268       .  A
O857        V865   1.899       .  S
O858        C868   1.270       .  A
O858        V865   1.899       .  S
O859        C869   1.256       .  A
O859        V865   1.865       .  S
O860        C870   1.255       .  A
O860        V865   1.868       .  S
O861        C870   1.275       .  A
O861        V866   1.943       .  S
O862        C869   1.277       .  A
O862        V866   1.951       .  S
O863        C868   1.259       .  A
O863        V866   1.904       .  S
O864        C867   1.262       .  A
O864        V866   1.911       .  S
V865        V866   2.085       .  T
C868        C882   1.471       .  S
N871        C875   1.357   1_545  A
N871        C872   1.360       .  A
N871        C885   1.395       .  S
C872        C873   1.377   1_545  A
C872        C887   1.469       .  S
C873        C874   1.382       .  A
C873        H876   1.081       .  S
C874        C875   1.382       .  A
C874       H1177   1.081       .  S
H877       C1174   1.081       .  S
N878        C882   1.362       .  A
N878        C879   1.350   1_556  A
N878        C888   1.423       .  S
C879        C880   1.374       .  A
C879        C886   1.433       .  S
C880        C881   1.368   1_554  A
C880        H883   1.083       .  S
C881        C882   1.388       .  A
C881        H884   1.083       .  S
C887        C888   1.224       .  T
C889        C890   1.207       .  T
C893        C894   1.206       .  T
C895        C896   1.220       .  T
C897        C898   1.200       .  T
C899        C900   1.222       .  T
N901        C905   1.358       .  A
N901        C902   1.350       .  A
N901        C999   1.414       .  S
C902        C903   1.373       .  A
C902        C997   1.443       .  S
C903        C904   1.378       .  A
C903        H906   1.082       .  S
C904        C905   1.396       .  A
C904        H907   1.084       .  S
C905        C967   1.483       .  S
N908        C912   1.354       .  A
N908       C1109   1.355       .  A
N908       C1000   1.415       .  S
C909       N1008   1.364       .  A
C909        C910   1.375       .  A
C909        C998   1.437       .  S
C910        C911   1.361       .  A
C910        H913   1.083       .  S
C911       C1012   1.379       .  A
C911        H914   1.079       .  S
C912       C1111   1.383       .  A
C912        C953   1.462   1_655  S
N915        C919   1.360       .  A
N915        C916   1.359       .  A
N915        C993   1.405       .  S
C916        C917   1.379       .  A
C916        C996   1.469       .  S
C917        C918   1.386       .  A
C917        H920   1.083       .  S
C918        C919   1.390       .  A
C918        H921   1.083       .  S
C919        C969   1.490       .  S
N922        C926   1.367       .  A
N922        C923   1.353   1_455  A
N922       C1195   1.423   1_454  S
C923        C924   1.373   1_655  A
C923        C994   1.443       .  S
C924        H927   1.083       .  S
C925        H928   1.083       .  S
N929        C933   1.362       .  A
N929        C930   1.361       .  A
N929        C990   1.410       .  S
C930        C931   1.375       .  A
C930        C991   1.453       .  S
C931        C932   1.372       .  A
C931       H1034   1.083       .  S
C932        C933   1.390       .  A
C932        H935   1.083       .  S
C933        C970   1.494       .  S
H934       C1131   1.083   1_554  S
N936        C940   1.369       .  A
N936        C937   1.360       .  A
N936        C992   1.419       .  S
C937        C938   1.374       .  A
C937        C989   1.451       .  S
C938        C939   1.368       .  A
C938        H941   1.083       .  S
C939        C940   1.390       .  A
C939        H942   1.083       .  S
C940        C956   1.501       .  S
O943        C953   1.258   1_654  A
O944        V951   1.904       .  S
O945        C955   1.266       .  A
O946        C956   1.268       .  A
O946        V951   1.899       .  S
O947       C1056   1.259       .  A
O947        V952   1.896       .  S
O948       C1055   1.259       .  A
O949       C1054   1.263       .  A
O950        V952   1.892       .  S
V951       V1152   2.084       .  T
V952       V1051   2.083       .  T
C954        C975   1.476       .  S
C954       O1149   1.263       .  A
C955       O1148   1.266   1_554  A
C956       O1147   1.268       .  A
O957        C967   1.263       .  A
O957        V965   1.889       .  S
O958        C968   1.264       .  A
O958        V965   1.887       .  S
O959        C969   1.258       .  A
O959        V965   1.888       .  S
O960        C970   1.263       .  A
O960        V965   1.885       .  S
O961        C970   1.272       .  A
O961        V966   1.943       .  S
O962        C969   1.275       .  A
O962        V966   1.932       .  S
O963        C968   1.257       .  A
O963        V966   1.883       .  S
O964        C967   1.267       .  A
O964        V966   1.906       .  S
V965        V966   2.087       .  T
C968        C982   1.451       .  S
N971        C975   1.355       .  A
N971        C972   1.356       .  A
N971        C985   1.401       .  S
C972        C973   1.371       .  A
C972        C987   1.450       .  S
C973        C974   1.374       .  A
C973        H976   1.076       .  S
C974        C975   1.376       .  A
N978        C982   1.353       .  A
N978        C979   1.348       .  A
N978        C988   1.414       .  S
C979        C980   1.375       .  A
C979        C986   1.425       .  S
C980        C981   1.370       .  A
C980        H983   1.081       .  S
C981        C982   1.378       .  A
C981        H984   1.079       .  S
C985       C1186   1.203       .  T
C986       C1085   1.196       .  T
C987        C988   1.213       .  T
C989        C990   1.212       .  T
C991       C1092   1.214       .  T
C992       C1191   1.221   1_554  T
C993        C994   1.207       .  T
C995       N1022   1.422       .  S
C995        C996   1.223       .  T
C997        C998   1.208       .  T
C999       C1000   1.215   1_554  T
N1001      C1005   1.356       .  A
N1001      C1002   1.351       .  A
N1001      C1099   1.422       .  S
C1002      C1003   1.374       .  A
C1002      C1097   1.435       .  S
C1003      C1004   1.371       .  A
C1003      H1006   1.083       .  S
C1004      C1005   1.391       .  A
C1004      H1007   1.084       .  S
C1005      C1067   1.477       .  S
N1008      C1012   1.365       .  A
N1008      C1100   1.423       .  S
C1009      N1108   1.361       .  A
C1009      C1010   1.375       .  A
C1009      C1098   1.431       .  S
C1010      C1011   1.363       .  A
C1010      H1013   1.083       .  S
C1011      C1112   1.380       .  A
C1011      H1014   1.079       .  S
C1012      C1053   1.470       .  S
N1015      C1019   1.359       .  A
N1015      C1016   1.366       .  A
N1015      C1093   1.400       .  S
C1016      C1017   1.376       .  A
C1016      C1096   1.468       .  S
C1017      C1018   1.372       .  A
C1017      H1020   1.082       .  S
C1018      C1019   1.390       .  A
C1018      H1021   1.083       .  S
C1019      C1069   1.491       .  S
N1022      C1026   1.360   1_655  A
N1022      C1023   1.349       .  A
C1023      C1024   1.379   1_655  A
C1023      C1094   1.435       .  S
C1024      H1027   1.083       .  S
C1025      H1028   1.084       .  S
N1029      C1033   1.355       .  A
N1029      C1030   1.356       .  A
N1029      C1090   1.397       .  S
C1030      C1031   1.375       .  A
C1030      C1091   1.462       .  S
C1031      C1032   1.377       .  A
C1031      H1134   1.083       .  S
C1032      C1033   1.391       .  A
C1032      H1035   1.083       .  S
C1033      C1070   1.469       .  S
N1036      C1040   1.357       .  A
N1036      C1037   1.347       .  A
N1036      C1092   1.414       .  S
C1037      C1038   1.378       .  A
C1037      C1089   1.432       .  S
C1038      C1039   1.371       .  A
C1038      H1041   1.083       .  S
C1039      C1040   1.385       .  A
C1039      H1042   1.083       .  S
C1040      C1056   1.466       .  S
O1043      C1053   1.260       .  A
O1044      V1051   1.908       .  S
O1045      C1055   1.267       .  A
O1046      C1056   1.266       .  A
O1046      V1051   1.893       .  S
O1047      C1156   1.263       .  A
O1047      V1052   1.913       .  S
O1048      C1155   1.262       .  A
O1049      C1154   1.268       .  A
O1050      V1052   1.902       .  S
V1052      V1151   2.084       .  T
C1054      C1075   1.491       .  S
O1057      C1067   1.268       .  A
O1057      V1065   1.897       .  S
O1058      C1068   1.271       .  A
O1058      V1065   1.899       .  S
O1059      C1069   1.255       .  A
O1059      V1065   1.864       .  S
O1060      C1070   1.252       .  A
O1060      V1065   1.863       .  S
O1061      C1070   1.272       .  A
O1061      V1066   1.938       .  S
O1062      C1069   1.278       .  A
O1062      V1066   1.952       .  S
O1063      C1068   1.255       .  A
O1063      V1066   1.895       .  S
O1064      C1067   1.262       .  A
O1064      V1066   1.910       .  S
V1065      V1066   2.082       .  T
C1068      C1082   1.464       .  S
N1071      C1075   1.356       .  A
N1071      C1072   1.357       .  A
N1071      C1085   1.393       .  S
C1072      C1073   1.380       .  A
C1072      C1087   1.473       .  S
C1073      C1074   1.386       .  A
C1073      H1076   1.081       .  S
C1074      C1075   1.383       .  A
N1078      C1082   1.363       .  A
N1078      C1079   1.345       .  A
N1078      C1088   1.424       .  S
C1079      C1080   1.374       .  A
C1079      C1086   1.425       .  S
C1080      C1081   1.368       .  A
C1080      H1083   1.083       .  S
C1081      C1082   1.387       .  A
C1081      H1084   1.083       .  S
C1086      C1185   1.196       .  T
C1087      C1088   1.224       .  T
C1089      C1090   1.200       .  T
C1091      C1192   1.219       .  T
C1093      C1094   1.204       .  T
C1095      N1122   1.425       .  S
C1095      C1096   1.225       .  T
C1097      C1098   1.203       .  T
C1099      C1100   1.223       .  T
N1101      C1105   1.360       .  A
N1101      C1102   1.350       .  A
N1101      C1199   1.423       .  S
C1102      C1103   1.371       .  A
C1102      C1197   1.430       .  S
C1103      C1104   1.369       .  A
C1103      H1106   1.083       .  S
C1104      C1105   1.390       .  A
C1104      H1107   1.084       .  S
C1105      C1167   1.479       .  S
N1108      C1112   1.361       .  A
N1108      C1200   1.424       .  S
C1109      C1110   1.373       .  A
C1109      C1198   1.430       .  S
C1110      C1111   1.370       .  A
C1110      H1113   1.081   1_565  S
C1111      H1114   1.083   1_665  S
C1112      C1153   1.463       .  S
N1115      C1119   1.364       .  A
N1115      C1116   1.363       .  A
N1115      C1193   1.402       .  S
C1116      C1117   1.373       .  A
C1116      C1196   1.468       .  S
C1117      C1118   1.373       .  A
C1117      H1120   1.082       .  S
C1118      C1119   1.393       .  A
C1118      H1121   1.083       .  S
C1119      C1169   1.491       .  S
N1122      C1126   1.368   1_655  A
N1122      C1123   1.351       .  A
C1123      C1124   1.372   1_655  A
C1123      C1194   1.439       .  S
C1124      H1127   1.083       .  S
C1125      H1128   1.084       .  S
N1129      C1133   1.361       .  A
N1129      C1130   1.360       .  A
N1129      C1190   1.401       .  S
C1130      C1131   1.374       .  A
C1130      C1191   1.464       .  S
C1131      C1132   1.375       .  A
C1132      C1133   1.392       .  A
C1132      H1135   1.083       .  S
C1133      C1170   1.478       .  S
N1136      C1140   1.364       .  A
N1136      C1137   1.351       .  A
N1136      C1192   1.418       .  S
C1137      C1138   1.373       .  A
C1137      C1189   1.437       .  S
C1138      C1139   1.366       .  A
C1138      H1141   1.083       .  S
C1139      C1140   1.389       .  A
C1139      H1142   1.083       .  S
C1140      C1156   1.485       .  S
O1143      C1153   1.256       .  A
O1144      V1151   1.902       .  S
O1145      C1155   1.266       .  A
O1146      C1156   1.269       .  A
O1146      V1151   1.899       .  S
O1147      V1152   1.936       .  S
O1150      V1152   1.891   1_556  S
C1154      C1175   1.491       .  S
O1157      C1167   1.269       .  A
O1157      V1165   1.904       .  S
O1158      C1168   1.270       .  A
O1158      V1165   1.903       .  S
O1159      C1169   1.254       .  A
O1159      V1165   1.862       .  S
O1160      C1170   1.253       .  A
O1160      V1165   1.864       .  S
O1161      C1170   1.277       .  A
O1161      V1166   1.946       .  S
O1162      C1169   1.279       .  A
O1162      V1166   1.955       .  S
O1163      C1168   1.258       .  A
O1163      V1166   1.901       .  S
O1164      C1167   1.262       .  A
O1164      V1166   1.911       .  S
V1165      V1166   2.085       .  T
C1168      C1182   1.470       .  S
N1171      C1175   1.354       .  A
N1171      C1172   1.358       .  A
N1171      C1185   1.392       .  S
C1172      C1173   1.377       .  A
C1172      C1187   1.467       .  S
C1173      C1174   1.382       .  A
C1173      H1176   1.080       .  S
C1174      C1175   1.381       .  A
N1178      C1182   1.360       .  A
N1178      C1179   1.350       .  A
N1178      C1188   1.422       .  S
C1179      C1180   1.375   1_556  A
C1179      C1186   1.435   1_556  S
C1180      C1181   1.370   1_554  A
C1180      H1183   1.083       .  S
C1181      C1182   1.387       .  A
C1181      H1184   1.083       .  S
C1187      C1188   1.222       .  T
C1189      C1190   1.204       .  T
C1193      C1194   1.205       .  T
C1195      C1196   1.223       .  T
C1197      C1198   1.200       .  T
C1199      C1200   1.223       .  T
