geometry optimzed in LAMMPS
_audit_creation_date              2020-11-30 
_audit_creation_method            'lammps2cif' 
_symmetry_space_group_name_H-M    'P1' 
_symmetry_Int_Tables_number       1 
_symmetry_cell_setting            triclinic 
loop_ 
_symmetry_equiv_pos_as_xyz 
  x,y,z 
_cell_length_a                    35.56116157 
_cell_length_b                    35.36654350665245 
_cell_length_c                    60.01237951647894 
_cell_angle_alpha                 89.9146516022902 
_cell_angle_beta                  89.8940433829404 
_cell_angle_gamma                 90.51744485509164 
loop_ 
_atom_site_label 
_atom_site_type_symbol 
_atom_site_fract_x 
_atom_site_fract_y 
_atom_site_fract_z 
_atom_site_charge 
N1          N  0.79542104  0.01776294  0.40837452    -0.27300
N2          N  0.80069367  0.98080561  0.40829717    -0.35100
C3          C  0.82664847  0.97245231  0.42388450     0.01100
C4          C  0.83782510  0.00578357  0.43433611     0.07100
C5          C  0.81797782  0.03382951  0.42358476    -0.06000
H6          H  0.83613511  0.94417145  0.42762879     0.07800
H7          H  0.81923389  0.06389695  0.42671433     0.09000
Cu8        Cu  0.77188042  0.94432369  0.38671061     0.44200
Cu9        Cu  0.75410829  0.04573299  0.39097878     0.42000
Cu10       Cu  0.69316724  0.98936080  0.35842353     0.43900
N11         N  0.74082471  0.91919215  0.36102764    -0.34700
N12         N  0.71239755  0.93600522  0.35097658    -0.28900
C13         C  0.70012467  0.91423995  0.33413993    -0.05000
C14         C  0.72185160  0.88214388  0.33336449     0.07200
C15         C  0.74731991  0.88604261  0.35070637     0.01000
H16         H  0.67788575  0.92189507  0.32275636     0.08600
H17         H  0.76984653  0.86695928  0.35489206     0.07700
N18         N  0.68101274  0.04443253  0.36678180    -0.36100
N19         N  0.70382716  0.06575846  0.37878874    -0.28300
C20         C  0.68695993  0.09884059  0.38311443    -0.03500
C21         C  0.65190990  0.09845821  0.37301300     0.05100
C22         C  0.64915895  0.06336213  0.36290280     0.03200
H23         H  0.69846777  0.12048288  0.39390607     0.08300
H24         H  0.62519198  0.05184093  0.35405463     0.07100
N25         N  0.71528937  0.84122919  0.27551676    -0.36600
N26         N  0.71797380  0.78323332  0.24143897    -0.57200
N27         N  0.71713521  0.72525434  0.27622557    -0.36600
N28         N  0.71794391  0.78336003  0.31034149    -0.57200
C29         C  0.72079166  0.86285138  0.25709710     0.27000
C30         C  0.72402035  0.86274843  0.29348423     0.27000
C31         C  0.72550577  0.70373572  0.25825757     0.27000
C32         C  0.72206520  0.70365783  0.29464247     0.27000
C33         C  0.71112362  0.81323801  0.22809061     0.35600
C34         C  0.71608271  0.75216153  0.22838197     0.35600
C35         C  0.71418754  0.81431438  0.32330933     0.35600
C36         C  0.71086256  0.75307967  0.32353739     0.35600
C37         C  0.73242887  0.89876306  0.26356731    -0.21900
C38         C  0.73505248  0.89847927  0.28637059    -0.21900
C39         C  0.73543288  0.66785995  0.26533494    -0.21900
C40         C  0.73301368  0.66770431  0.28820359    -0.21900
C41         C  0.70538346  0.80110673  0.20637888    -0.22900
C42         C  0.70853757  0.76248970  0.20657293    -0.22900
C43         C  0.70503693  0.80369488  0.34489138    -0.22900
C44         C  0.70302813  0.76496624  0.34506276    -0.22900
C45         C  0.71392616  0.85153241  0.23474405    -0.18300
C46         C  0.72016039  0.85197598  0.31617673    -0.18300
C47         C  0.71486940  0.71491286  0.31694551    -0.18300
C48         C  0.72232200  0.71467158  0.23559670    -0.18300
H49         H  0.73834861  0.92306520  0.25318531     0.14600
H50         H  0.74370207  0.92225800  0.29651997     0.14600
H51         H  0.74306760  0.64397958  0.25507114     0.14600
H52         H  0.73834247  0.64352003  0.29873267     0.14600
H53         H  0.70041683  0.81820216  0.19174019     0.12900
H54         H  0.70585138  0.74416225  0.19222624     0.12900
H55         H  0.70038694  0.82188303  0.35909668     0.12900
H56         H  0.69717297  0.74770670  0.35956688     0.12900
H57         H  0.70223425  0.81489908  0.27589588     0.26200
H58         H  0.70475716  0.75164043  0.27585945     0.26200
N59         N  0.66429724  0.56447857  0.42572006    -0.27300
N60         N  0.64378059  0.58768141  0.41358053    -0.35100
C61         C  0.60839581  0.58747772  0.42168113     0.01100
C62         C  0.60644791  0.56270886  0.43967512     0.07100
C63         C  0.64273262  0.54922863  0.44186343    -0.06000
H64         H  0.58576971  0.60430190  0.41502337     0.07800
H65         H  0.65313559  0.53030759  0.45455159     0.09000
Cu66       Cu  0.66568353  0.61921639  0.38696281     0.44200
Cu67       Cu  0.72040601  0.55287894  0.41964070     0.42000
Cu68       Cu  0.76516978  0.60290207  0.37512663     0.43900
N69         N  0.69647577  0.64754094  0.36221435    -0.34700
N70         N  0.73267157  0.64183975  0.35846900    -0.28900
C71         C  0.74445550  0.66457513  0.34187725    -0.05000
C72         C  0.71428401  0.68545963  0.33459752     0.07200
C73         C  0.68428871  0.67412719  0.34789035     0.01000
H74         H  0.77295632  0.66578248  0.33555763     0.08600
H75         H  0.65583714  0.68464902  0.34728785     0.07700
N76         N  0.79049919  0.55893347  0.39183728    -0.36100
N77         N  0.77394467  0.54038564  0.40830325    -0.28300
C78         C  0.79577235  0.51132628  0.41438653    -0.03500
C79         C  0.82789077  0.51180755  0.40124718     0.05100
C80         C  0.82334218  0.54227641  0.38700467     0.03200
H81         H  0.78778096  0.49019612  0.42659273     0.08300
H82         H  0.84187093  0.55090263  0.37357395     0.07100
N83         N  0.78121061  0.55626619  0.13303880    -0.27300
N84         N  0.79958147  0.58463071  0.14249104    -0.35100
C85         C  0.83417579  0.58703933  0.13327817     0.01100
C86         C  0.83780575  0.55866170  0.11733915     0.07100
C87         C  0.80318061  0.54035025  0.11749498    -0.06000
H88         H  0.85511408  0.60801937  0.13780097     0.07800
H89         H  0.79403722  0.51752279  0.10679423     0.09000
Cu90       Cu  0.77532852  0.61883597  0.16711330     0.44200
Cu91       Cu  0.72768573  0.53853133  0.14206032     0.42000
Cu92       Cu  0.67806235  0.59324493  0.18217049     0.43900
N93         N  0.74313280  0.64688746  0.19123720    -0.34700
N94         N  0.70814747  0.63718511  0.19647490    -0.28900
C95         C  0.69580397  0.65952761  0.21298521    -0.05000
C96         C  0.72413664  0.68468666  0.21839656     0.07200
C97         C  0.75373898  0.67612559  0.20428012     0.01000
H98         H  0.66821108  0.65751491  0.22054061     0.08600
H99         H  0.78102843  0.68985615  0.20370907     0.07700
N100        N  0.65693774  0.54328027  0.16925208    -0.36100
N101        N  0.67593876  0.52246848  0.15497851    -0.28300
C102        C  0.65681018  0.49017497  0.15126852    -0.03500
C103        C  0.62410144  0.49047639  0.16389121     0.05100
C104        C  0.62491158  0.52504533  0.17480294     0.03200
H105        H  0.66642489  0.46775212  0.14048232     0.08300
H106        H  0.60400176  0.53625418  0.18602559     0.07100
N107        N  0.65916916  0.01388489  0.13323581    -0.27300
N108        N  0.64064278  0.98434239  0.14138932    -0.35100
C109        C  0.60745167  0.98117604  0.13060448     0.01100
C110        C  0.60481378  0.01039552  0.11510176     0.07100
C111        C  0.63835213  0.03025523  0.11730626    -0.06000
H112        H  0.58736097  0.95849583  0.13332214     0.07800
H113        H  0.64736674  0.05463118  0.10771274     0.09000
Cu114      Cu  0.66273415  0.94923296  0.16634017     0.44200
Cu115      Cu  0.71302013  0.03042805  0.14264499     0.42000
Cu116      Cu  0.76019103  0.97274449  0.18169277     0.43900
N117        N  0.69414273  0.92017401  0.19041641    -0.34700
N118        N  0.72967164  0.92836427  0.19504988    -0.28900
C119        C  0.74209029  0.90489473  0.21095077    -0.05000
C120        C  0.71294992  0.88110669  0.21712148     0.07200
C121        C  0.68297074  0.89130299  0.20366133     0.01000
H122        H  0.77014519  0.90572001  0.21789328     0.08600
H123        H  0.65505053  0.87890160  0.20368822     0.07700
N124        N  0.78437205  0.02097749  0.16848620    -0.36100
N125        N  0.76699088  0.04248368  0.15383248    -0.28300
C126        C  0.78925562  0.07224177  0.14877893    -0.03500
C127        C  0.82195468  0.06951366  0.16115076     0.05100
C128        C  0.81802577  0.03645640  0.17331735     0.03200
H129        H  0.78177843  0.09474083  0.13743146     0.08300
H130        H  0.83794865  0.02466566  0.18495957     0.07100
C131        C  0.49440015  0.02979062  0.04439629     0.02300
C132        C  0.46285195  0.05389052  0.04507255     0.02300
C133        C  0.43851023  0.05570460  0.02668844    -0.18300
C134        C  0.44431747  0.03349703  0.00763902     0.02300
C135        C  0.47539398  0.00881395  0.00710950     0.02300
C136        C  0.49980650  0.00709094  0.02547039    -0.18300
H137        H  0.52325241  0.98770897  0.02504103     0.04300
H138        H  0.41502722  0.07504415  0.02710830     0.04300
N139        N  0.29038537  0.04912122  0.91234158    -0.27300
N140        N  0.30549945  0.08224928  0.90704254    -0.35100
C141        C  0.33574942  0.08812131  0.92026277     0.01100
C142        C  0.33976941  0.05706971  0.93439787     0.07100
C143        C  0.31021763  0.03326113  0.92886989    -0.06000
H144        H  0.35295453  0.11348948  0.91999381     0.07800
H145        H  0.30346056  0.00621929  0.93639837     0.09000
Cu146      Cu  0.28218706  0.11772415  0.88239636     0.44200
Cu147      Cu  0.24263918  0.02625386  0.89796013     0.42000
Cu148      Cu  0.19404584  0.07968339  0.85772653     0.43900
N149        N  0.25007648  0.14553491  0.85781769    -0.34700
N150        N  0.21862014  0.13132360  0.84930512    -0.28900
C151        C  0.20553517  0.15494976  0.83362489    -0.05000
C152        C  0.22959893  0.18568670  0.83197113     0.07200
C153        C  0.25757252  0.17888716  0.84759146     0.01000
H154        H  0.18076465  0.14959573  0.82363326     0.08600
H155        H  0.28214776  0.19630252  0.85074709     0.07700
N156        N  0.17443136  0.02744799  0.86886602    -0.36100
N157        N  0.19288996  0.00767502  0.88388834    -0.28300
C158        C  0.17310478  0.97623973  0.88888397    -0.03500
C159        C  0.14060347  0.97588328  0.87623476     0.05100
C160        C  0.14226325  0.00900912  0.86380969     0.03200
H161        H  0.18136004  0.95558944  0.90121880     0.08300
H162        H  0.12100881  0.01966633  0.85262638     0.07100
N163        N  0.15854950  0.50786259  0.92141371    -0.27300
N164        N  0.13903687  0.48120993  0.91107894    -0.35100
C165        C  0.10478958  0.47852968  0.92076564     0.01100
C166        C  0.10299436  0.50420067  0.93839178     0.07100
C167        C  0.13779838  0.52218964  0.93799499    -0.06000
H168        H  0.08283285  0.45966106  0.91502783     0.07800
H169        H  0.14768060  0.54424162  0.94905057     0.09000
Cu170      Cu  0.16134769  0.44922567  0.88472480     0.44200
Cu171      Cu  0.21141719  0.52699363  0.91218277     0.42000
Cu172      Cu  0.25672632  0.47760705  0.86860859     0.43900
N173        N  0.19364862  0.42158589  0.86037339    -0.34700
N174        N  0.22861791  0.43163192  0.85540486    -0.28900
C175        C  0.24196313  0.40883385  0.83942335    -0.05000
C176        C  0.21406196  0.38334313  0.83364534     0.07200
C177        C  0.18381403  0.39202699  0.84734649     0.01000
H178        H  0.26974548  0.41124854  0.83214719     0.08600
H179        H  0.15659387  0.37812990  0.84762133     0.07700
N180        N  0.27688665  0.52820155  0.88089994    -0.36100
N181        N  0.26026826  0.54655986  0.89726215    -0.28300
C182        C  0.27843117  0.57956389  0.90060148    -0.03500
C183        C  0.30752755  0.58223037  0.88531493     0.05100
C184        C  0.30599157  0.54895882  0.87326791     0.03200
H185        H  0.27030569  0.60059261  0.91272500     0.08300
H186        H  0.32430538  0.54062830  0.85976226     0.07100
N187        N  0.21952577  0.22760868  0.77440675    -0.36600
N188        N  0.21950487  0.28609289  0.74023591    -0.57200
N189        N  0.21802687  0.34385501  0.77515620    -0.36600
N190        N  0.22243901  0.28537969  0.80935550    -0.57200
C191        C  0.22351920  0.20616842  0.75582335     0.27000
C192        C  0.22918467  0.20600959  0.79216944     0.27000
C193        C  0.22459956  0.36607337  0.75709910     0.27000
C194        C  0.22143475  0.36582943  0.79354650     0.27000
C195        C  0.21299494  0.25592106  0.72690410     0.35600
C196        C  0.21747152  0.31717954  0.72714757     0.35600
C197        C  0.22200448  0.25417544  0.82247234     0.35600
C198        C  0.21580238  0.31532834  0.82280179     0.35600
C199        C  0.23513800  0.17029837  0.76195601    -0.21900
C200        C  0.23914344  0.17035067  0.78471890    -0.21900
C201        C  0.23179507  0.40275222  0.76410938    -0.21900
C202        C  0.22931772  0.40273688  0.78694839    -0.21900
C203        C  0.20732489  0.26799456  0.70516810    -0.22900
C204        C  0.21023801  0.30669091  0.70532612    -0.22900
C205        C  0.21576685  0.26442138  0.84443421    -0.22900
C206        C  0.21184539  0.30302073  0.84465534    -0.22900
C207        C  0.21574637  0.21759142  0.73356994    -0.18300
C208        C  0.22742425  0.21656105  0.81502696    -0.18300
C209        C  0.21625429  0.35382638  0.81601840    -0.18300
C210        C  0.22248660  0.35494482  0.73439816    -0.18300
H211        H  0.24031497  0.14632643  0.75126466     0.14600
H212        H  0.24813408  0.14652530  0.79463931     0.14600
H213        H  0.23766515  0.42729405  0.75384093     0.14600
H214        H  0.23277951  0.42748561  0.79729397     0.14600
H215        H  0.20247426  0.25082373  0.69053845     0.12900
H216        H  0.20732064  0.32498869  0.69097288     0.12900
H217        H  0.21407371  0.24603691  0.85883678     0.12900
H218        H  0.20722930  0.32000166  0.85936676     0.12900
H219        H  0.20698155  0.25389266  0.77507415     0.26200
H220        H  0.20816097  0.31628960  0.77492063     0.26200
N221        N  0.16565585  0.06810291  0.62389852    -0.27300
N222        N  0.14451369  0.09128520  0.63571054    -0.35100
C223        C  0.10933129  0.09031524  0.62726146     0.01100
C224        C  0.10833882  0.06498633  0.60952133     0.07100
C225        C  0.14481920  0.05209489  0.60778824    -0.06000
H226        H  0.08617661  0.10686545  0.63352747     0.07800
H227        H  0.15586208  0.03298556  0.59539900     0.09000
Cu228      Cu  0.16541595  0.12348469  0.66255666     0.44200
Cu229      Cu  0.22180599  0.05719955  0.62964266     0.42000
Cu230      Cu  0.26509336  0.10793401  0.67355564     0.43900
N231        N  0.19614725  0.15134570  0.68774206    -0.34700
N232        N  0.23242061  0.14561393  0.69115604    -0.28900
C233        C  0.24443839  0.16761017  0.70797985    -0.05000
C234        C  0.21442308  0.18814241  0.71584840     0.07200
C235        C  0.18420640  0.17736525  0.70255239     0.01000
H236        H  0.27311092  0.16877015  0.71395636     0.08600
H237        H  0.15582791  0.18803380  0.70342973     0.07700
N238        N  0.29195235  0.06507945  0.65662321    -0.36100
N239        N  0.27594088  0.04627851  0.64013830    -0.28300
C240        C  0.29885121  0.01832419  0.63362438    -0.03500
C241        C  0.33059228  0.01931473  0.64691523     0.05100
C242        C  0.32544788  0.04957195  0.66116892     0.03200
H243        H  0.29207970  0.99765515  0.62094379     0.08300
H244        H  0.34405928  0.05885833  0.67434762     0.07100
N245        N  0.28232969  0.52035956  0.63520773    -0.27300
N246        N  0.29974907  0.48995541  0.64258730    -0.35100
C247        C  0.33246083  0.48658958  0.63129704     0.01100
C248        C  0.33547557  0.51643674  0.61624161     0.07100
C249        C  0.30305108  0.53697581  0.61921917    -0.06000
H250        H  0.35180547  0.46339465  0.63323967     0.07800
H251        H  0.29457429  0.56176022  0.60997278     0.09000
Cu252      Cu  0.27569542  0.45409296  0.66678865     0.44200
Cu253      Cu  0.22999659  0.53750337  0.64544878     0.42000
Cu254      Cu  0.17986645  0.48037145  0.68422995     0.43900
N255        N  0.24338027  0.42483119  0.69074405    -0.34700
N256        N  0.20902372  0.43480296  0.69679692    -0.28900
C257        C  0.19648657  0.41135774  0.71286617    -0.05000
C258        C  0.22400662  0.38516016  0.71717890     0.07200
C259        C  0.25338171  0.39437505  0.70287558     0.01000
H260        H  0.16945096  0.41355123  0.72103673     0.08600
H261        H  0.28025333  0.38042198  0.70169821     0.07700
N262        N  0.15808813  0.52938782  0.67096860    -0.36100
N263        N  0.17698121  0.55047432  0.65657135    -0.28300
C264        C  0.15680452  0.58117491  0.65156609    -0.03500
C265        C  0.12334740  0.57919238  0.66327356     0.05100
C266        C  0.12524298  0.54618631  0.67562817     0.03200
H267        H  0.16643968  0.60388822  0.64083320     0.08300
H268        H  0.10465523  0.53555975  0.68742268     0.07100
C269        C  0.97980513  0.51343596  0.04688953     0.02300
C270        C  0.95067041  0.54052128  0.04811740     0.02300
C271        C  0.94389529  0.56382783  0.02943485    -0.18300
C272        C  0.96602449  0.56192118  0.00993961     0.02300
C273        C  0.99539915  0.53514032  0.00900236     0.02300
C274        C  0.00168531  0.51144356  0.02741982    -0.18300
H275        H  0.02394881  0.49072513  0.02650859     0.04300
H276        H  0.92086766  0.58367744  0.03002810     0.04300
N277        N  0.77516540  0.78803989  0.77284409    -0.36600
N278        N  0.71870747  0.79082818  0.80721598    -0.57200
N279        N  0.66013283  0.79181538  0.77244017    -0.36600
N280        N  0.71681276  0.79230022  0.73816316    -0.57200
C281        C  0.79743411  0.79182931  0.79107293     0.27000
C282        C  0.79632750  0.79654635  0.75470011     0.27000
C283        C  0.63982337  0.80131153  0.79065218     0.27000
C284        C  0.63868264  0.79900676  0.75425713     0.27000
C285        C  0.74845466  0.78230117  0.82031915     0.35600
C286        C  0.68774168  0.78862188  0.82027535     0.35600
C287        C  0.74742583  0.78830036  0.72506045     0.35600
C288        C  0.68647045  0.78640607  0.72500102     0.35600
C289        C  0.83336064  0.80237934  0.78425148    -0.21900
C290        C  0.83249157  0.80586719  0.76146792    -0.21900
C291        C  0.60501741  0.81460571  0.78393475    -0.21900
C292        C  0.60415569  0.81278874  0.76107271    -0.21900
C293        C  0.73628183  0.77540643  0.84192029    -0.22900
C294        C  0.69791018  0.77927997  0.84187167    -0.22900
C295        C  0.73652746  0.78017274  0.70340755    -0.22900
C296        C  0.69793982  0.77898056  0.70336200    -0.22900
C297        C  0.78661634  0.78393649  0.81347014    -0.18300
C298        C  0.78503683  0.79335374  0.73209472    -0.18300
C299        C  0.64877521  0.79161680  0.73180139    -0.18300
C300        C  0.65052531  0.79592616  0.81321407    -0.18300
H301        H  0.85811897  0.80671360  0.79433765     0.14600
H302        H  0.85622722  0.81354175  0.75104011     0.14600
H303        H  0.58225849  0.82422717  0.79442701     0.14600
H304        H  0.58054601  0.82060675  0.75077895     0.14600
H305        H  0.75315589  0.76893604  0.85637904     0.12900
H306        H  0.67966443  0.77569191  0.85618054     0.12900
H307        H  0.75447282  0.77585445  0.68906751     0.12900
H308        H  0.68048540  0.77415568  0.68888466     0.12900
H309        H  0.74845730  0.77587346  0.77254956     0.26200
H310        H  0.68529442  0.77705955  0.77258399     0.26200
N311        N  0.48866354  0.85352443  0.91243609    -0.27300
N312        N  0.52368487  0.86519580  0.90936432    -0.35100
C313        C  0.53114816  0.89301465  0.92413059     0.01100
C314        C  0.49931046  0.89869431  0.93720527     0.07100
C315        C  0.47285433  0.87359838  0.92884103    -0.06000
H316        H  0.55792400  0.90757703  0.92550431     0.07800
H317        H  0.44404658  0.86989167  0.93424053     0.09000
Cu318      Cu  0.55844491  0.84164235  0.88494925     0.44200
Cu319      Cu  0.46397793  0.80833317  0.89632277     0.42000
Cu320      Cu  0.51549455  0.75956079  0.85554372     0.43900
N321        N  0.58287898  0.81299398  0.85813455    -0.34700
N322        N  0.56686885  0.78404892  0.84771186    -0.28900
C323        C  0.58885814  0.77335271  0.83070055    -0.05000
C324        C  0.62026723  0.79647270  0.83025755     0.07200
C325        C  0.61572439  0.82129690  0.84788404     0.01000
H326        H  0.58210067  0.75078109  0.81919291     0.08600
H327        H  0.63436678  0.84430667  0.85250607     0.07700
N328        N  0.46464441  0.73939980  0.86756597    -0.36100
N329        N  0.44567989  0.75784536  0.88295679    -0.28300
C330        C  0.41571684  0.73705776  0.88921042    -0.03500
C331        C  0.41593216  0.70373627  0.87722290     0.05100
C332        C  0.44706122  0.70630690  0.86340019     0.03200
H333        H  0.39585362  0.74517345  0.90197365     0.08300
H334        H  0.45710696  0.68501916  0.85196841     0.07100
N335        N  0.94249917  0.71604524  0.91554124    -0.27300
N336        N  0.91270218  0.69814058  0.90743759    -0.35100
C337        C  0.90772099  0.66572798  0.91924939     0.01100
C338        C  0.93586535  0.66346607  0.93540233     0.07100
C339        C  0.95704128  0.69599591  0.93236811    -0.06000
H340        H  0.88460949  0.64606662  0.91686077     0.07800
H341        H  0.98110048  0.70497271  0.94209279     0.09000
Cu342      Cu  0.88015306  0.72183304  0.88140348     0.44200
Cu343      Cu  0.96288232  0.76809191  0.90517308     0.42000
Cu344      Cu  0.91225208  0.81897593  0.86562768     0.43900
N345        N  0.85427485  0.75668669  0.85713847    -0.34700
N346        N  0.86540874  0.79173765  0.85259343    -0.28900
C347        C  0.84287998  0.80662717  0.83697743    -0.05000
C348        C  0.81653073  0.77975827  0.83078339     0.07200
C349        C  0.82440842  0.74845373  0.84402957     0.01000
H350        H  0.84590392  0.83495801  0.83034325     0.08600
H351        H  0.80955320  0.72162586  0.84402240     0.07700
N352        N  0.96262154  0.83914591  0.87839391    -0.36100
N353        N  0.98156667  0.81992214  0.89342580    -0.28300
C354        C  0.01377638  0.83847128  0.89806770    -0.03500
C355        C  0.01512203  0.87122486  0.88536598     0.05100
C356        C  0.98231450  0.87047833  0.87290875     0.03200
H357        H  0.03525076  0.82810470  0.90919825     0.08300
H358        H  0.97373507  0.89085412  0.86049578     0.07100
N359        N  0.50159702  0.74520770  0.62140819    -0.27300
N360        N  0.52188008  0.72378069  0.63476145    -0.35100
C361        C  0.52156747  0.68815318  0.62677618     0.01100
C362        C  0.50080053  0.68722791  0.60712480     0.07100
C363        C  0.48839858  0.72404320  0.60451608    -0.06000
H364        H  0.53532183  0.66474006  0.63486061     0.07800
H365        H  0.47117658  0.73488943  0.59115600     0.09000
Cu366      Cu  0.55083533  0.74501689  0.66251338     0.44200
Cu367      Cu  0.49084731  0.80195240  0.62696131     0.42000
Cu368      Cu  0.53857549  0.84566840  0.67301374     0.43900
N369        N  0.58012746  0.77529250  0.68709571    -0.34700
N370        N  0.57610354  0.81203174  0.69041447    -0.28900
C371        C  0.59942849  0.82325355  0.70680977    -0.05000
C372        C  0.61897283  0.79215241  0.71437446     0.07200
C373        C  0.60616220  0.76223738  0.70143260     0.01000
H374        H  0.60207831  0.85202075  0.71274944     0.08600
H375        H  0.61544410  0.73322154  0.70222395     0.07700
N376        N  0.49604736  0.87189485  0.65525046    -0.36100
N377        N  0.47895529  0.85602556  0.63806292    -0.28300
C378        C  0.45118752  0.87874052  0.63111142    -0.03500
C379        C  0.45078284  0.91051688  0.64455602     0.05100
C380        C  0.47940876  0.90502661  0.65980546     0.03200
H381        H  0.43139402  0.87163115  0.61807152     0.08300
H382        H  0.48673096  0.92314642  0.67367386     0.07100
N383        N  0.95166309  0.85411180  0.63510441    -0.27300
N384        N  0.91909458  0.86919720  0.64064261    -0.35100
C385        C  0.91398010  0.90049347  0.62816751     0.01100
C386        C  0.94499962  0.90517754  0.61427643     0.07100
C387        C  0.96808601  0.87512199  0.61917792    -0.06000
H388        H  0.88889262  0.91754379  0.62851290     0.07800
H389        H  0.99456618  0.86835133  0.61128989     0.09000
Cu390      Cu  0.88289128  0.84440418  0.66406427     0.44200
Cu391      Cu  0.97213751  0.80423402  0.64759950     0.42000
Cu392      Cu  0.91503092  0.75364213  0.68629473     0.43900
N393        N  0.85420188  0.81275273  0.68827806    -0.34700
N394        N  0.86635474  0.78009747  0.69616478    -0.28900
C395        C  0.84313952  0.76796499  0.71237425    -0.05000
C396        C  0.81486542  0.79402416  0.71483399     0.07200
C397        C  0.82255450  0.82207609  0.69930347     0.01000
H398        H  0.84715724  0.74253971  0.72209867     0.08600
H399        H  0.80707995  0.84791899  0.69677472     0.07700
N400        N  0.96652353  0.73444641  0.67561030    -0.36100
N401        N  0.98765057  0.75342720  0.66128263    -0.28300
C402        C  0.01896609  0.73379935  0.65710840    -0.03500
C403        C  0.01764303  0.70099185  0.66962148     0.05100
C404        C  0.98385694  0.70213538  0.68105623     0.03200
H405        H  0.04079134  0.74250238  0.64555655     0.08300
H406        H  0.97218555  0.68064061  0.69195986     0.07100
N407        N  0.99874942  0.34409316  0.13335692    -0.27300
N408        N  0.02867705  0.36195214  0.14127072    -0.35100
C409        C  0.03384506  0.39411566  0.12943338     0.01100
C410        C  0.00604924  0.39620877  0.11318173     0.07100
C411        C  0.98403009  0.36426186  0.11659546    -0.06000
H412        H  0.05658917  0.41410163  0.13212077     0.07800
H413        H  0.95908483  0.35597093  0.10749186     0.09000
Cu414      Cu  0.06068968  0.34023793  0.16767273     0.44200
Cu415      Cu  0.97980871  0.29176192  0.14410257     0.42000
Cu416      Cu  0.02478808  0.25074711  0.19106862     0.43900
N417        N  0.08536538  0.31125845  0.19441744    -0.34700
N418        N  0.07127168  0.27972572  0.20311642    -0.28900
C419        C  0.09309325  0.26849898  0.22010094    -0.05000
C420        C  0.12257024  0.29386507  0.22219670     0.07200
C421        C  0.11691121  0.32064833  0.20567131     0.01000
H422        H  0.08811427  0.24339695  0.23004255     0.08600
H423        H  0.13427673  0.34523815  0.20221323     0.07700
N424        N  0.98300798  0.22316314  0.17331135    -0.36100
N425        N  0.96660629  0.23831093  0.15577378    -0.28300
C426        C  0.94057820  0.21405510  0.14788873    -0.03500
C427        C  0.94081178  0.18176655  0.16098547     0.05100
C428        C  0.96791518  0.18875971  0.17707594     0.03200
H429        H  0.92176532  0.22026082  0.13425213     0.08300
H430        H  0.97558766  0.17051125  0.19078755     0.07100
N431        N  0.44912610  0.20971477  0.13940759    -0.27300
N432        N  0.41481630  0.19664957  0.14342319    -0.35100
C433        C  0.40759235  0.16808165  0.12910449     0.01100
C434        C  0.43879715  0.16326080  0.11537199     0.07100
C435        C  0.46474290  0.18959174  0.12296633    -0.06000
H436        H  0.38120987  0.15267416  0.12833952     0.07800
H437        H  0.49293721  0.19452370  0.11682935     0.09000
Cu438      Cu  0.37968784  0.21980605  0.16786855     0.44200
Cu439      Cu  0.47245547  0.25845501  0.15264844     0.42000
Cu440      Cu  0.40986001  0.31567184  0.18265162     0.43900
N441        N  0.35380456  0.25278941  0.19242799    -0.34700
N442        N  0.36417141  0.28805417  0.19675215    -0.28900
C443        C  0.34255080  0.30188035  0.21313919    -0.05000
C444        C  0.31770142  0.27394697  0.21991939     0.07200
C445        C  0.32541346  0.24318056  0.20634276     0.01000
H446        H  0.34531499  0.33005646  0.21997606     0.08600
H447        H  0.31151239  0.21584745  0.20665427     0.07700
N448        N  0.46164198  0.33546027  0.17180944    -0.36100
N449        N  0.48544706  0.31378304  0.16094237    -0.28300
C450        C  0.51664605  0.33397763  0.15612963    -0.03500
C451        C  0.51214166  0.37027226  0.16434093     0.05100
C452        C  0.47709791  0.37000514  0.17443538     0.03200
H453        H  0.54086373  0.32295484  0.14744822     0.08300
H454        H  0.46373543  0.39326341  0.18294253     0.07100
N455        N  0.27943585  0.28094267  0.27866655    -0.36600
N456        N  0.22270175  0.28965494  0.31369971    -0.57200
N457        N  0.16436638  0.28993840  0.27974103    -0.36600
N458        N  0.22117783  0.28540928  0.24465413    -0.57200
C459        C  0.30179575  0.28885788  0.29638953     0.27000
C460        C  0.30091153  0.28390134  0.26001560     0.27000
C461        C  0.14328956  0.29650382  0.29814064     0.27000
C462        C  0.14288715  0.29777284  0.26171832     0.27000
C463        C  0.25341716  0.28494398  0.32665579     0.35600
C464        C  0.19235528  0.28503765  0.32712310     0.35600
C465        C  0.25043221  0.27618852  0.23133637     0.35600
C466        C  0.18998108  0.28433963  0.23177710     0.35600
C467        C  0.33794428  0.29661607  0.28888330    -0.21900
C468        C  0.33753891  0.29297117  0.26611105    -0.21900
C469        C  0.10778813  0.30821103  0.29163221    -0.21900
C470        C  0.10770705  0.30941415  0.26876663    -0.21900
C471        C  0.24254367  0.27800574  0.34847969    -0.22900
C472        C  0.20396672  0.27809094  0.34878584    -0.22900
C473        C  0.23770188  0.26983849  0.20980533    -0.22900
C474        C  0.19951361  0.27491022  0.21011117    -0.22900
C475        C  0.29118369  0.28747476  0.31923202    -0.18300
C476        C  0.28875646  0.27704648  0.23777908    -0.18300
C477        C  0.15305144  0.29244389  0.23908209    -0.18300
C478        C  0.15443026  0.28965188  0.32049376    -0.18300
H479        H  0.36238719  0.30387848  0.29874962     0.14600
H480        H  0.36184261  0.29653027  0.25546708     0.14600
H481        H  0.08392980  0.31477444  0.30204646     0.14600
H482        H  0.08401490  0.31726251  0.25851126     0.14600
H483        H  0.26046905  0.27313442  0.36272807     0.12900
H484        H  0.18659540  0.27398246  0.36341974     0.12900
H485        H  0.25410945  0.26303305  0.19519065     0.12900
H486        H  0.18095015  0.27208583  0.19593151     0.12900
H487        H  0.25227973  0.27018596  0.27939234     0.26200
H488        H  0.19010853  0.27658136  0.27952882     0.26200
N489        N  0.98662540  0.22421095  0.41609483    -0.27300
N490        N  0.01702363  0.20738132  0.40837413    -0.35100
C491        C  0.02063925  0.17382099  0.41880539     0.01100
C492        C  0.99083315  0.16924289  0.43360926     0.07100
C493        C  0.97002553  0.20187597  0.43135315    -0.06000
H494        H  0.04428204  0.15516436  0.41661677     0.07800
H495        H  0.94533398  0.20963028  0.44079798     0.09000
Cu496      Cu  0.05346421  0.23254746  0.38528193     0.44200
Cu497      Cu  0.97054050  0.27863742  0.40834806     0.42000
Cu498      Cu  0.03253302  0.33180801  0.37385452     0.43900
N499        N  0.08422862  0.26668051  0.36328219    -0.34700
N500        N  0.07702972  0.30286285  0.35981072    -0.28900
C501        C  0.10138894  0.31677331  0.34466803    -0.05000
C502        C  0.12479698  0.28795607  0.33798390     0.07200
C503        C  0.11327123  0.25660682  0.35018260     0.01000
H504        H  0.10132847  0.34552704  0.33848831     0.08600
H505        H  0.12472089  0.22841230  0.34927524     0.07700
N506        N  0.98362510  0.35411810  0.38695885    -0.36100
N507        N  0.96075044  0.33432772  0.39992930    -0.28300
C508        C  0.93111562  0.35571868  0.40543804    -0.03500
C509        C  0.93523247  0.39047295  0.39509200     0.05100
C510        C  0.96900311  0.38861724  0.38363738     0.03200
H511        H  0.90781553  0.34633838  0.41573070     0.08300
H512        H  0.98185408  0.41055712  0.37352692     0.07100
N513        N  0.45273642  0.35020041  0.41899992    -0.27300
N514        N  0.41886868  0.36265925  0.41393810    -0.35100
C515        C  0.41120755  0.39253279  0.42708748     0.01100
C516        C  0.44155602  0.39862587  0.44122579     0.07100
C517        C  0.46749579  0.37158304  0.43528392    -0.06000
H518        H  0.38519863  0.40815236  0.42672642     0.07800
H519        H  0.49512936  0.36748174  0.44233567     0.09000
Cu520      Cu  0.38508224  0.33720983  0.38955534     0.44200
Cu521      Cu  0.47742612  0.30346886  0.40496948     0.42000
Cu522      Cu  0.42448091  0.25182372  0.36438975     0.43900
N523        N  0.35936292  0.30660053  0.36380386    -0.34700
N524        N  0.37397852  0.27593443  0.35473603    -0.28900
C525        C  0.35172976  0.26414441  0.33797482    -0.05000
C526        C  0.32158608  0.28842015  0.33631121     0.07200
C527        C  0.32725294  0.31494471  0.35300201     0.01000
H528        H  0.35747414  0.24006935  0.32744108     0.08600
H529        H  0.30986289  0.33913460  0.35659059     0.07700
N530        N  0.47646345  0.23447524  0.37611576    -0.36100
N531        N  0.49605685  0.25398978  0.39089793    -0.28300
C532        C  0.52857866  0.23625108  0.39495822    -0.03500
C533        C  0.52938155  0.20368857  0.38228911     0.05100
C534        C  0.49602681  0.20359984  0.37037360     0.03200
H535        H  0.54998206  0.24626266  0.40636069     0.08300
H536        H  0.48693096  0.18300724  0.35816438     0.07100
C537        C  0.94882901  0.02779479  0.50372052     0.02300
C538        C  0.97401872  0.05884983  0.50444201     0.02300
C539        C  0.99761811  0.06348590  0.52301342    -0.18300
C540        C  0.99551058  0.03873454  0.54134537     0.02300
C541        C  0.96982072  0.00791425  0.54055751     0.02300
C542        C  0.94701499  0.00275963  0.52176053    -0.18300
H543        H  0.92692503  0.97950675  0.52140983     0.04300
H544        H  0.01767865  0.08674450  0.52322030     0.04300
C545        C  0.48986509  0.54404496  0.50649809     0.02300
C546        C  0.46230884  0.51502490  0.50789885     0.02300
C547        C  0.43896599  0.51282976  0.52669239    -0.18300
C548        C  0.44140359  0.53954834  0.54391607     0.02300
C549        C  0.46956631  0.56806478  0.54287868     0.02300
C550        C  0.49364618  0.56955964  0.52430880    -0.18300
H551        H  0.51540755  0.59121080  0.52359870     0.04300
H552        H  0.41804893  0.49037554  0.52772724     0.04300
C553        C  0.44575522  0.42775911  0.45883401    -0.06100
C554        C  0.43349341  0.46470385  0.45448898    -0.17200
C555        C  0.43871240  0.49378381  0.47015104     0.11100
C556        C  0.45725891  0.48598810  0.49034860    -0.06000
C557        C  0.46869312  0.44901680  0.49493336    -0.17300
C558        C  0.46265732  0.41981134  0.47966408     0.11100
S559        S  0.42016943  0.54021688  0.46477134    -0.32200
S560        S  0.47478269  0.37278816  0.48860810    -0.32200
H561        H  0.44373815  0.35507176  0.47837773     0.29100
H562        H  0.40737493  0.53289569  0.44302818     0.29100
H563        H  0.41998463  0.47077278  0.43875212     0.19700
H564        H  0.48168332  0.44273417  0.51082658     0.19700
C565        C  0.98521738  0.13966659  0.45093476    -0.06100
C566        C  0.97168753  0.15096615  0.47189906    -0.17200
C567        C  0.96645830  0.12507976  0.48924994     0.11100
C568        C  0.97617995  0.08686204  0.48605806    -0.06000
C569        C  0.98931262  0.07528978  0.46510870    -0.17300
C570        C  0.99317031  0.10098295  0.44743522     0.11100
S571        S  0.94680112  0.14277880  0.51488664    -0.32200
S572        S  0.00654436  0.08208893  0.42074686    -0.32200
H573        H  0.98344483  0.10632210  0.40832033     0.29100
H574        H  0.92925222  0.10883057  0.52152662     0.29100
H575        H  0.96521410  0.18037972  0.47493768     0.19700
H576        H  0.99635583  0.04591673  0.46244182     0.18100
C577        C  0.96473124  0.98158123  0.55951218    -0.06100
C578        C  0.94943036  0.99541974  0.57941943    -0.17200
C579        C  0.94281159  0.97151232  0.59765414     0.11100
C580        C  0.95094300  0.93255216  0.59585835    -0.06000
C581        C  0.96601976  0.91884925  0.57579310    -0.17300
C582        C  0.97321502  0.94279682  0.55774269     0.11100
S583        S  0.92546152  0.99292346  0.62281673    -0.32200
S584        S  0.99354500  0.92200381  0.53308482    -0.32200
H585        H  0.01248622  0.95463517  0.52553366     0.29100
H586        H  0.94705355  0.97055731  0.63724963     0.29100
H587        H  0.94284403  0.02519355  0.58079095     0.19700
H588        H  0.97227149  0.88906227  0.57409060     0.19700
C589        C  0.49262436  0.65480877  0.59184737    -0.06100
C590        C  0.45861661  0.65491922  0.57984016    -0.17200
C591        C  0.45023249  0.62714732  0.56393252     0.11100
C592        C  0.47516896  0.59684451  0.56065296    -0.06000
C593        C  0.50859418  0.59594198  0.57300170    -0.17300
C594        C  0.51806884  0.62483108  0.58800737     0.11100
S595        S  0.40861632  0.63352704  0.54735906    -0.32200
S596        S  0.56454704  0.62318843  0.59978235    -0.32200
H597        H  0.57217132  0.66181024  0.59611860     0.29100
H598        H  0.42496018  0.62108904  0.52734700     0.29100
H599        H  0.43873803  0.67755688  0.58229524     0.19700
H600        H  0.52843057  0.57338330  0.57006611     0.19700
C601        C  0.00071624  0.42592349  0.09584676    -0.06100
C602        C  0.00729109  0.46404931  0.10137140    -0.17200
C603        C  0.00115091  0.49322503  0.08589270     0.11100
C604        C  0.98673398  0.48451665  0.06454001    -0.06000
C605        C  0.98067372  0.44644537  0.05896291    -0.17300
C606        C  0.98825092  0.41724626  0.07400202     0.11100
S607        S  0.01357485  0.54060553  0.09413436    -0.32200
S608        S  0.98390955  0.36968178  0.06347293    -0.32200
H609        H  0.01564553  0.35611674  0.07482339     0.29100
H610        H  0.02597792  0.55204486  0.07289153     0.29100
H611        H  0.01741435  0.47122080  0.11786319     0.19700
H612        H  0.97076991  0.43933347  0.04240175     0.19700
C613        C  0.94115600  0.63604838  0.95409262    -0.06100
C614        C  0.95043286  0.65096804  0.97507681    -0.17200
C615        C  0.95884595  0.62780095  0.99327240     0.11100
C616        C  0.95762461  0.58796982  0.99091679    -0.06000
C617        C  0.94739583  0.57280494  0.97007354    -0.17300
C618        C  0.93961852  0.59624858  0.95166780     0.11100
S619        S  0.97192397  0.65168278  0.01869188    -0.32200
S620        S  0.92976853  0.57355761  0.92545727    -0.32200
H621        H  0.94967136  0.60010891  0.91244011     0.29100
H622        H  0.99449716  0.62303773  0.02745956     0.29100
H623        H  0.95162862  0.68135228  0.97733255     0.19700
H624        H  0.94599377  0.54239047  0.96802507     0.19700
C625        C  0.09426879  0.60853197  0.66442819    -0.06100
C626        C  0.08095318  0.61946383  0.68546319    -0.17200
C627        C  0.05671407  0.65011202  0.68780194     0.11100
C628        C  0.04449564  0.66960715  0.66861644    -0.06000
C629        C  0.05739389  0.65830086  0.64758976    -0.17300
C630        C  0.08171005  0.62784043  0.64525056     0.11100
S631        S  0.04479178  0.66452938  0.71572290    -0.32200
S632        S  0.09415047  0.61414051  0.61727551    -0.32200
H633        H  0.09575652  0.57518366  0.62188547     0.29100
H634        H  0.04504541  0.70351825  0.71103550     0.29100
H635        H  0.09095063  0.60522474  0.70028857     0.19700
H636        H  0.04763673  0.67269365  0.63275571     0.19700
C637        C  0.36370679  0.52298326  0.59838301    -0.06100
C638        C  0.35040053  0.53150577  0.57696271    -0.17200
C639        C  0.37492881  0.53802777  0.55912802     0.11100
C640        C  0.41423814  0.53630516  0.56264344    -0.06000
C641        C  0.42769095  0.52799476  0.58407722    -0.17300
C642        C  0.40295283  0.52158003  0.60196238     0.11100
S643        S  0.35362023  0.54766142  0.53237807    -0.32200
S644        S  0.42330409  0.51284552  0.62892460    -0.32200
H645        H  0.39566546  0.53232494  0.64100375     0.29100
H646        H  0.38450029  0.56554257  0.52216209     0.29100
H647        H  0.32038117  0.53257022  0.57396581     0.19700
H648        H  0.45772367  0.52616808  0.58685490     0.19700
C649        C  0.42196301  0.94043860  0.64492849    -0.06100
C650        C  0.40483248  0.94922298  0.66533903    -0.17200
C651        C  0.37467544  0.97429627  0.66645809     0.11100
C652        C  0.36179775  0.99201284  0.64680207    -0.06000
C653        C  0.37922066  0.98362625  0.62643410    -0.17300
C654        C  0.40939159  0.95852506  0.62532350     0.11100
S655        S  0.35224368  0.98021949  0.69318494    -0.32200
S656        S  0.43164769  0.95216450  0.59859251    -0.32200
H657        H  0.46803963  0.94684000  0.60711981     0.29100
H658        H  0.31545196  0.98163259  0.68466280     0.29100
H659        H  0.41387185  0.93511002  0.68042401     0.19700
H660        H  0.36979011  0.99741470  0.61132674     0.19700
C661        C  0.07653636  0.05617132  0.59419159    -0.06100
C662        C  0.05167630  0.08515705  0.58834766    -0.17200
C663        C  0.02382610  0.07963535  0.57213119     0.11100
C664        C  0.02144059  0.04479926  0.56060358    -0.06000
C665        C  0.04547179  0.01545167  0.56697451    -0.17300
C666        C  0.07182097  0.02024942  0.58406364     0.11100
S667        S  0.99198101  0.11807092  0.56718693    -0.32200
S668        S  0.09693937  0.97873991  0.59278747    -0.32200
H669        H  0.09865818  0.98916446  0.61538204     0.29100
H670        H  0.96096843  0.09501393  0.56163738     0.29100
H671        H  0.05424231  0.11259821  0.59622252     0.19700
H672        H  0.04370200  0.98840269  0.55859817     0.19700
C673        C  0.33462684  0.61377461  0.88271504    -0.06100
C674        C  0.35188698  0.62822746  0.90191453    -0.17200
C675        C  0.37953736  0.65644871  0.90053176     0.11100
C676        C  0.38948572  0.67161662  0.87951031    -0.06000
C677        C  0.37236480  0.65711388  0.86027824    -0.17300
C678        C  0.34471110  0.62880152  0.86165435     0.11100
S679        S  0.40257200  0.67013839  0.92605899    -0.32200
S680        S  0.32180866  0.61497823  0.83611231    -0.32200
H681        H  0.28604913  0.60969977  0.84574982     0.29100
H682        H  0.43822355  0.67577797  0.91634270     0.29100
H683        H  0.34473539  0.61647642  0.91808466     0.19700
H684        H  0.37954823  0.66895776  0.84413652     0.19700
C685        C  0.07194703  0.51234346  0.95459478    -0.06100
C686        C  0.07140274  0.54835674  0.96465423    -0.17200
C687        C  0.04691132  0.55678478  0.98220434     0.11100
C688        C  0.01981690  0.52980477  0.98906491    -0.06000
C689        C  0.01854252  0.49470911  0.97819040    -0.17300
C690        C  0.04466524  0.48527882  0.96160723     0.11100
S691        S  0.05415139  0.60110891  0.99631552    -0.32200
S692        S  0.04333810  0.43714935  0.95199302    -0.32200
H693        H  0.08219931  0.43184741  0.95482244     0.29100
H694        H  0.04862723  0.58604316  0.01778307     0.29100
H695        H  0.09146844  0.56989897  0.95958187     0.19700
H696        H  0.99826314  0.47355038  0.98363467     0.19700
C697        C  0.04665979  0.89879018  0.88352388    -0.06100
C698        C  0.05794237  0.91085437  0.86220684    -0.17200
C699        C  0.08902642  0.93496063  0.85922008     0.11100
C700        C  0.10900071  0.94838227  0.87799830    -0.06000
C701        C  0.09778930  0.93621705  0.89930802    -0.17300
C702        C  0.06672587  0.91213379  0.90230330     0.11100
S703        S  0.10298450  0.94552063  0.83098434    -0.32200
S704        S  0.05291661  0.90159450  0.93057861    -0.32200
H705        H  0.01404200  0.90170536  0.92629301     0.29100
H706        H  0.14183657  0.94575449  0.83535159     0.29100
H707        H  0.04322928  0.90034111  0.84764922     0.19700
H708        H  0.11251419  0.94668462  0.91387408     0.19700
C709        C  0.48121770  0.98178924  0.98863288    -0.06100
C710        C  0.46313566  0.94659213  0.98990090    -0.17200
C711        C  0.47020907  0.91832268  0.97423195     0.11100
C712        C  0.49410102  0.92607125  0.95577348    -0.06000
C713        C  0.51263574  0.96135584  0.95475127    -0.17300
C714        C  0.50707269  0.98892222  0.97127425     0.11100
S715        S  0.45064881  0.87220358  0.98022706    -0.32200
S716        S  0.53348446  0.03275295  0.97043216    -0.32200
H717        H  0.55311293  0.02537925  0.95056244     0.29100
H718        H  0.48236224  0.85238228  0.97270760     0.29100
H719        H  0.44470227  0.94048274  0.00388437     0.19700
H720        H  0.53140862  0.96737498  0.94096027     0.19700
C721        C  0.45653368  0.08042678  0.06368016    -0.06100
C722        C  0.47463265  0.11561205  0.06250754    -0.17200
C723        C  0.46736477  0.14390644  0.07809542     0.11100
C724        C  0.44366330  0.13607719  0.09663206    -0.06000
C725        C  0.42495362  0.10087856  0.09751165    -0.17300
C726        C  0.43033888  0.07338066  0.08099119     0.11100
S727        S  0.48603227  0.19020420  0.07164827    -0.32200
S728        S  0.40223837  0.03062803  0.08297245    -0.32200
H729        H  0.41933079  0.00963898  0.06599143     0.29100
H730        H  0.45399345  0.20955049  0.07912177     0.29100
H731        H  0.49311361  0.12178642  0.04854879     0.19700
H732        H  0.40602489  0.09458492  0.11120878     0.19700
C733        C  0.41772070  0.03714729  0.98856437    -0.06100
C734        C  0.43052258  0.05359054  0.96860219    -0.17200
C735        C  0.40624924  0.05963897  0.95054802     0.11100
C736        C  0.36755337  0.05059574  0.95260227    -0.06000
C737        C  0.35478392  0.03415505  0.97265024    -0.17300
C738        C  0.37928744  0.02713366  0.99045522     0.11100
S739        S  0.42692229  0.07729960  0.92512346    -0.32200
S740        S  0.35964459  0.00565773  0.01522044    -0.32200
H741        H  0.39242915  0.98666522  0.02169071     0.29100
H742        H  0.40474168  0.05454206  0.91102194     0.29100
H743        H  0.45970058  0.06200374  0.96705965     0.19700
H744        H  0.32529747  0.02685800  0.97456693     0.19700
C745        C  0.85370570  0.09674214  0.16149755    -0.06100
C746        C  0.86865547  0.10932592  0.14111655    -0.17200
C747        C  0.89879602  0.13504358  0.14035816     0.11100
C748        C  0.91346120  0.14994460  0.16044752    -0.06000
C749        C  0.89930033  0.13632996  0.18080579    -0.17300
C750        C  0.86957012  0.11026254  0.18157250     0.11100
S751        S  0.91836043  0.14597725  0.11333812    -0.32200
S752        S  0.85152862  0.09781917  0.20872164    -0.32200
H753        H  0.81351513  0.09805784  0.20230124     0.29100
H754        H  0.95548520  0.15079984  0.12095270     0.29100
H755        H  0.85731054  0.09833782  0.12564936     0.19700
H756        H  0.91006997  0.14758284  0.19634039     0.19700
C757        C  0.57527071  0.01714897  0.09789712    -0.06100
C758        C  0.58671297  0.03016542  0.07675707    -0.17200
C759        C  0.56086149  0.03615700  0.05954210     0.11100
C760        C  0.52231959  0.02782914  0.06296460    -0.06000
C761        C  0.51068886  0.01530961  0.08414003    -0.17300
C762        C  0.53637475  0.01090475  0.10170115     0.11100
S763        S  0.57898569  0.05472555  0.03360547    -0.32200
S764        S  0.51726296  0.99919401  0.12868820    -0.32200
H765        H  0.54289111  0.02188300  0.14063350     0.29100
H766        H  0.54648331  0.07487630  0.02787739     0.29100
H767        H  0.61623218  0.03556572  0.07345938     0.19700
H768        H  0.48133142  0.00883771  0.08707363     0.19700
C769        C  0.59476820  0.46026760  0.16464768    -0.06100
C770        C  0.58781300  0.43966887  0.14505313    -0.17200
C771        C  0.56034383  0.41117489  0.14423073     0.11100
C772        C  0.53949676  0.40206464  0.16359141    -0.06000
C773        C  0.54585054  0.42296029  0.18310111    -0.17300
C774        C  0.57347493  0.45140604  0.18399126     0.11100
S775        S  0.55190584  0.38922293  0.11759259    -0.32200
S776        S  0.58162737  0.47293076  0.21076613    -0.32200
H777        H  0.62103731  0.47306207  0.20870298     0.29100
H778        H  0.51279166  0.38549523  0.12052630     0.29100
H779        H  0.60320049  0.44649863  0.12995616     0.19700
H780        H  0.53024574  0.41596180  0.19810426     0.19700
C781        C  0.92564677  0.54428803  0.06803742    -0.06100
C782        C  0.90444673  0.51291200  0.07528198    -0.17200
C783        C  0.87796611  0.51597640  0.09253179     0.11100
C784        C  0.87007208  0.55190345  0.10187845    -0.06000
C785        C  0.89245689  0.58286624  0.09528084    -0.17300
C786        C  0.92047690  0.57932430  0.07899347     0.11100
S787        S  0.85708337  0.47251049  0.10250097    -0.32200
S788        S  0.94858081  0.62086281  0.07319452    -0.32200
H789        H  0.98045784  0.60171264  0.06553899     0.29100
H790        H  0.85543665  0.48413733  0.12489417     0.29100
H791        H  0.90839898  0.48570687  0.06739604     0.19700
H792        H  0.88772981  0.61043163  0.10254360     0.19700
C793        C  0.85755452  0.48267448  0.40018535    -0.06100
C794        C  0.87067756  0.47123902  0.37916657    -0.17200
C795        C  0.89583204  0.44126387  0.37694086     0.11100
C796        C  0.90874913  0.42234823  0.39617719    -0.06000
C797        C  0.89619521  0.43414911  0.41718686    -0.17300
C798        C  0.87149773  0.46447877  0.41943600     0.11100
S799        S  0.90835921  0.42714514  0.34905518    -0.32200
S800        S  0.86075815  0.47981767  0.44734458    -0.32200
H801        H  0.85912811  0.51849381  0.44193843     0.29100
H802        H  0.90852982  0.38813460  0.35363614     0.29100
H803        H  0.86007035  0.48467781  0.36423941     0.19700
H804        H  0.90656681  0.42026088  0.43204083     0.19700
C805        C  0.57378563  0.55544286  0.45473746    -0.06100
C806        C  0.54896688  0.58522423  0.45913091    -0.17200
C807        C  0.52008760  0.58161787  0.47492553     0.11100
C808        C  0.51619073  0.54764552  0.48726385    -0.06000
C809        C  0.54005772  0.51740777  0.48232139    -0.17300
C810        C  0.56785605  0.52047532  0.46584676     0.11100
S811        S  0.48980760  0.62188116  0.47865251    -0.32200
S812        S  0.59344052  0.47812320  0.45934736    -0.32200
H813        H  0.59674390  0.48614780  0.43645711     0.29100
H814        H  0.45888961  0.60229242  0.48774908     0.29100
H815        H  0.55259613  0.61203022  0.45060839     0.19700
H816        H  0.53734275  0.49119203  0.49155645     0.19700
C817        C  0.62129919  0.12632358  0.37535414    -0.06100
C818        C  0.58438456  0.11251239  0.37796320    -0.17200
C819        C  0.55410312  0.13689288  0.38086425     0.11100
C820        C  0.56044218  0.17634482  0.38087477    -0.06000
C821        C  0.59735775  0.19028056  0.37868336    -0.17300
C822        C  0.62768650  0.16587114  0.37555278     0.11100
S823        S  0.50849665  0.11562922  0.38555201    -0.32200
S824        S  0.67307340  0.18726497  0.37037740    -0.32200
H825        H  0.68410067  0.16053734  0.35436574     0.29100
H826        H  0.49633280  0.14309370  0.40081429     0.29100
H827        H  0.57906115  0.08230789  0.37834127     0.19700
H828        H  0.60243389  0.22054471  0.37844768     0.19700
C829        C  0.86525511  0.01077338  0.45280680    -0.06100
C830        C  0.89685858  0.98722265  0.45366131    -0.17200
C831        C  0.92498259  0.99249943  0.46974039     0.11100
C832        C  0.92187301  0.02238263  0.48521071    -0.06000
C833        C  0.89021197  0.04554478  0.48461841    -0.17300
C834        C  0.86147482  0.03944338  0.46915241     0.11100
S835        S  0.96385445  0.96000163  0.46962718    -0.32200
S836        S  0.81944389  0.06689758  0.47283199    -0.32200
H837        H  0.79468362  0.03707424  0.46737497     0.29100
H838        H  0.98993540  0.98307010  0.48087292     0.29100
H839        H  0.90007298  0.96490859  0.44147702     0.19700
H840        H  0.88697921  0.06742736  0.49708343     0.19700
loop_ 
_geom_bond_atom_site_label_1 
_geom_bond_atom_site_label_2 
_geom_bond_distance 
_geom_bond_site_symmetry_2 
_ccdc_geom_bond_type 
N1            N2   1.322   1_545  A
N1            C5   1.340       .  A
N1           Cu9   2.063       .  S
N2            C3   1.350       .  A
N2           Cu8   2.093       .  S
C3            C4   1.391   1_565  A
C3            H6   1.082       .  S
C4            C5   1.382       .  A
C4          C829   1.488       .  S
C5            H7   1.081       .  S
Cu8          N11   2.092       .  S
Cu9          N19   2.064       .  S
Cu10         N12   2.062       .  S
Cu10         N18   2.061   1_565  S
N11          N12   1.323       .  A
N11          C15   1.348       .  A
N12          C13   1.342       .  A
C13          C14   1.380       .  A
C13          H16   1.082       .  S
C14          C15   1.387       .  A
C14          C46   1.486       .  S
C15          H17   1.082       .  S
N18          N19   1.319       .  A
N18          C22   1.342       .  A
N19          C20   1.345       .  A
C20          C21   1.387       .  A
C20          H23   1.081       .  S
C21          C22   1.385       .  A
C21         C817   1.482       .  S
C22          H24   1.082       .  S
N25          C30   1.356       .  A
N25          C29   1.356       .  A
N25          H57   1.037       .  S
N26          C33   1.353       .  A
N26          C34   1.352       .  A
N27          C32   1.355       .  A
N27          C31   1.355       .  A
N27          H58   1.036       .  S
N28          C35   1.352       .  A
N28          C36   1.353       .  A
C29          C37   1.388       .  A
C29          C45   1.421       .  A
C30          C46   1.420       .  A
C30          C38   1.386       .  A
C31          C39   1.386       .  A
C31          C48   1.418       .  A
C32          C47   1.420       .  A
C32          C40   1.388       .  A
C33          C45   1.415       .  A
C33          C41   1.387       .  A
C34          C48   1.414       .  A
C34          C42   1.386       .  A
C35          C43   1.385       .  A
C35          C46   1.413       .  A
C36          C44   1.388       .  A
C36          C47   1.416       .  A
C37          C38   1.372       .  A
C37          H49   1.080       .  S
C38          H50   1.082       .  S
C39          C40   1.375       .  A
C39          H51   1.082       .  S
C40          H52   1.081       .  S
C41          C42   1.371       .  A
C41          H53   1.081       .  S
C42          H54   1.082       .  S
C43          C44   1.371       .  A
C43          H55   1.082       .  S
C44          H56   1.081       .  S
C45         C120   1.487       .  S
C47          C72   1.485       .  S
C48          C96   1.483       .  S
N59          N60   1.322       .  A
N59          C63   1.344       .  A
N59         Cu67   2.072       .  S
N60          C61   1.348       .  A
N60         Cu66   2.092       .  S
C61          C62   1.391       .  A
C61          H64   1.082       .  S
C62          C63   1.386       .  A
C62         C805   1.491       .  S
C63          H65   1.081       .  S
Cu66         N69   2.092       .  S
Cu67         N77   2.072       .  S
Cu68         N70   2.064       .  S
Cu68         N76   2.064       .  S
N69          N70   1.324       .  A
N69          C73   1.348       .  A
N70          C71   1.343       .  A
C71          C72   1.379       .  A
C71          H74   1.082       .  S
C72          C73   1.387       .  A
C73          H75   1.082       .  S
N76          N77   1.320       .  A
N76          C80   1.344       .  A
N77          C78   1.344       .  A
C78          C79   1.387       .  A
C78          H81   1.081       .  S
C79          C80   1.385       .  A
C79         C793   1.483       .  S
C80          H82   1.082       .  S
N83          N84   1.321       .  A
N83          C87   1.343       .  A
N83         Cu91   2.070       .  S
N84          C85   1.350       .  A
N84         Cu90   2.100       .  S
C85          C86   1.394       .  A
C85          H88   1.082       .  S
C86          C87   1.386       .  A
C86         C784   1.495       .  S
C87          H89   1.080       .  S
Cu90         N93   2.100       .  S
Cu91        N101   2.070       .  S
Cu92         N94   2.067       .  S
Cu92        N100   2.066       .  S
N93          N94   1.325       .  A
N93          C97   1.349       .  A
N94          C95   1.344       .  A
C95          C96   1.378       .  A
C95          H98   1.082       .  S
C96          C97   1.386       .  A
C97          H99   1.082       .  S
N100        N101   1.319       .  A
N100        C104   1.345       .  A
N101        C102   1.343       .  A
C102        C103   1.387       .  A
C102        H105   1.082       .  S
C103        C104   1.388       .  A
C103        C769   1.487       .  S
C104        H106   1.081       .  S
N107        N108   1.323   1_545  A
N107        C111   1.344       .  A
N107       Cu115   2.077       .  S
N108        C109   1.351       .  A
N108       Cu114   2.102       .  S
C109        C110   1.393   1_565  A
C109        H112   1.081       .  S
C110        C111   1.385       .  A
C110        C757   1.495       .  S
C111        H113   1.082       .  S
Cu114       N117   2.101       .  S
Cu115       N125   2.075       .  S
Cu116       N118   2.061       .  S
Cu116       N124   2.060   1_565  S
N117        N118   1.324       .  A
N117        C121   1.350       .  A
N118        C119   1.342       .  A
C119        C120   1.379       .  A
C119        H122   1.082       .  S
C120        C121   1.389       .  A
C121        H123   1.082       .  S
N124        N125   1.320       .  A
N124        C128   1.344       .  A
N125        C126   1.345       .  A
C126        C127   1.385       .  A
C126        H129   1.082       .  S
C127        C128   1.383       .  A
C127        C745   1.478       .  S
C128        H130   1.082       .  S
C131        C132   1.416       .  A
C131        C136   1.406       .  A
C131        C760   1.496       .  S
C132        C133   1.405       .  A
C132        C721   1.478       .  S
C133        C134   1.404       .  A
C133        H138   1.084       .  S
C134        C135   1.415       .  A
C134        C733   1.492   1_554  S
C135        C136   1.406       .  A
C135        C709   1.480   1_544  S
C136        H137   1.084   1_545  S
N139        N140   1.323       .  A
N139        C143   1.343       .  A
N139       Cu147   2.065       .  S
N140        C141   1.353       .  A
N140       Cu146   2.113       .  S
C141        C142   1.395       .  A
C141        H144   1.081       .  S
C142        C143   1.382       .  A
C142        C736   1.493       .  S
C143        H145   1.082       .  S
Cu146       N149   2.114       .  S
Cu147       N157   2.064       .  S
Cu148       N150   2.079       .  S
Cu148       N156   2.078       .  S
N149        N150   1.326       .  A
N149        C153   1.353       .  A
N150        C151   1.344       .  A
C151        C152   1.381       .  A
C151        H154   1.082       .  S
C152        C153   1.390       .  A
C152        C208   1.494       .  S
C153        H155   1.082       .  S
N156        N157   1.320       .  A
N156        C160   1.347       .  A
N157        C158   1.344   1_545  A
C158        C159   1.384       .  A
C158        H161   1.082       .  S
C159        C160   1.389   1_565  A
C159        C700   1.483       .  S
C160        H162   1.082       .  S
N163        N164   1.321       .  A
N163        C167   1.341       .  A
N163       Cu171   2.067       .  S
N164        C165   1.351       .  A
N164       Cu170   2.104       .  S
C165        C166   1.397       .  A
C165        H168   1.080       .  S
C166        C167   1.387       .  A
C166        C685   1.500       .  S
C167        H169   1.081       .  S
Cu170       N173   2.105       .  S
Cu171       N181   2.066       .  S
Cu172       N174   2.061       .  S
Cu172       N180   2.060       .  S
N173        N174   1.324       .  A
N173        C177   1.350       .  A
N174        C175   1.343       .  A
C175        C176   1.380       .  A
C175        H178   1.082       .  S
C176        C177   1.390       .  A
C176        C209   1.490       .  S
C177        H179   1.082       .  S
N180        N181   1.320       .  A
N180        C184   1.343       .  A
N181        C182   1.344       .  A
C182        C183   1.384       .  A
C182        H185   1.082       .  S
C183        C184   1.383       .  A
C183        C673   1.476       .  S
C184        H186   1.082       .  S
N187        C192   1.357       .  A
N187        C191   1.357       .  A
N187        H219   1.035       .  S
N188        C195   1.353       .  A
N188        C196   1.353       .  A
N189        C194   1.356       .  A
N189        C193   1.356       .  A
N189        H220   1.033       .  S
N190        C197   1.355       .  A
N190        C198   1.355       .  A
C191        C199   1.387       .  A
C191        C207   1.423       .  A
C192        C208   1.424       .  A
C192        C200   1.387       .  A
C193        C201   1.386       .  A
C193        C210   1.421       .  A
C194        C209   1.424       .  A
C194        C202   1.389       .  A
C195        C207   1.417       .  A
C195        C203   1.388       .  A
C196        C210   1.415       .  A
C196        C204   1.386       .  A
C197        C205   1.385       .  A
C197        C208   1.419       .  A
C198        C206   1.388       .  A
C198        C209   1.420       .  A
C199        C200   1.374       .  A
C199        H211   1.081       .  S
C200        H212   1.082       .  S
C201        C202   1.373       .  A
C201        H213   1.082       .  S
C202        H214   1.080       .  S
C203        C204   1.372       .  A
C203        H215   1.081       .  S
C204        H216   1.082       .  S
C205        C206   1.374       .  A
C205        H217   1.082       .  S
C206        H218   1.082       .  S
C207        C234   1.490       .  S
C210        C258   1.486       .  S
N221        N222   1.323       .  A
N221        C225   1.342       .  A
N221       Cu229   2.067       .  S
N222        C223   1.351       .  A
N222       Cu228   2.107       .  S
C223        C224   1.393       .  A
C223        H226   1.082       .  S
C224        C225   1.383       .  A
C224        C661   1.490       .  S
C225        H227   1.081       .  S
Cu228       N231   2.107       .  S
Cu229       N239   2.066       .  S
Cu230       N232   2.066       .  S
Cu230       N238   2.066       .  S
N231        N232   1.324       .  A
N231        C235   1.351       .  A
N232        C233   1.344       .  A
C233        C234   1.379       .  A
C233        H236   1.082       .  S
C234        C235   1.390       .  A
C235        H237   1.082       .  S
N238        N239   1.320       .  A
N238        C242   1.344       .  A
N239        C240   1.345       .  A
C240        C241   1.384       .  A
C240        H243   1.082   1_545  S
C241        C242   1.384       .  A
C241        C652   1.478   1_545  S
C242        H244   1.082       .  S
N245        N246   1.322       .  A
N245        C249   1.340       .  A
N245       Cu253   2.056       .  S
N246        C247   1.351       .  A
N246       Cu252   2.102       .  S
C247        C248   1.392       .  A
C247        H250   1.082       .  S
C248        C249   1.380       .  A
C248        C637   1.484       .  S
C249        H251   1.082       .  S
Cu252       N255   2.104       .  S
Cu253       N263   2.055       .  S
Cu254       N256   2.067       .  S
Cu254       N262   2.064       .  S
N255        N256   1.325       .  A
N255        C259   1.350       .  A
N256        C257   1.344       .  A
C257        C258   1.378       .  A
C257        H260   1.082       .  S
C258        C259   1.387       .  A
C259        H261   1.082       .  S
N262        N263   1.319       .  A
N262        C266   1.344       .  A
N263        C264   1.341       .  A
C264        C265   1.382       .  A
C264        H267   1.082       .  S
C265        C266   1.384       .  A
C265        C625   1.473       .  S
C266        H268   1.082       .  S
C269        C270   1.419       .  A
C269        C274   1.405   1_655  A
C269        C604   1.494       .  S
C270        C271   1.413       .  A
C270        C781   1.496       .  S
C271        C272   1.411       .  A
C271        H276   1.084       .  S
C272        C273   1.417       .  A
C272        C616   1.498   1_554  S
C273        C274   1.406   1_655  A
C273        C688   1.490   1_654  S
C274        H275   1.085       .  S
N277        C282   1.354       .  A
N277        C281   1.358       .  A
N277        H309   1.039       .  S
N278        C285   1.355       .  A
N278        C286   1.352       .  A
N279        C284   1.358       .  A
N279        C283   1.353       .  A
N279        H310   1.040       .  S
N280        C287   1.350       .  A
N280        C288   1.353       .  A
C281        C289   1.389       .  A
C281        C297   1.424       .  A
C282        C298   1.420       .  A
C282        C290   1.386       .  A
C283        C291   1.388       .  A
C283        C300   1.420       .  A
C284        C299   1.419       .  A
C284        C292   1.386       .  A
C285        C297   1.418       .  A
C285        C293   1.387       .  A
C286        C300   1.416       .  A
C286        C294   1.386       .  A
C287        C295   1.386       .  A
C287        C298   1.413       .  A
C288        C296   1.387       .  A
C288        C299   1.414       .  A
C289        C290   1.373       .  A
C289        H301   1.079       .  S
C290        H302   1.082       .  S
C291        C292   1.374       .  A
C291        H303   1.082       .  S
C292        H304   1.081       .  S
C293        C294   1.373       .  A
C293        H305   1.081       .  S
C294        H306   1.082       .  S
C295        C296   1.372       .  A
C295        H307   1.082       .  S
C296        H308   1.082       .  S
C297        C348   1.496       .  S
C298        C396   1.481       .  S
C299        C372   1.491       .  S
C300        C324   1.483       .  S
N311        N312   1.321       .  A
N311        C315   1.340       .  A
N311       Cu319   2.060       .  S
N312        C313   1.350       .  A
N312       Cu318   2.094       .  S
C313        C314   1.393       .  A
C313        H316   1.082       .  S
C314        C315   1.383       .  A
C314        C712   1.490       .  S
C315        H317   1.081       .  S
Cu318       N321   2.094       .  S
Cu319       N329   2.059       .  S
Cu320       N322   2.068       .  S
Cu320       N328   2.066       .  S
N321        N322   1.325       .  A
N321        C325   1.349       .  A
N322        C323   1.342       .  A
C323        C324   1.378       .  A
C323        H326   1.082       .  S
C324        C325   1.386       .  A
C325        H327   1.082       .  S
N328        N329   1.319       .  A
N328        C332   1.346       .  A
N329        C330   1.342       .  A
C330        C331   1.382       .  A
C330        H333   1.082       .  S
C331        C332   1.384       .  A
C331        C676   1.474       .  S
C332        H334   1.082       .  S
N335        N336   1.323       .  A
N335        C339   1.340       .  A
N335       Cu343   2.067       .  S
N336        C337   1.357       .  A
N336       Cu342   2.122       .  S
C337        C338   1.397       .  A
C337        H340   1.082       .  S
C338        C339   1.381       .  A
C338        C613   1.495       .  S
C339        H341   1.082       .  S
Cu342       N345   2.123       .  S
Cu343       N353   2.067       .  S
Cu344       N346   2.072       .  S
Cu344       N352   2.071       .  S
N345        N346   1.326       .  A
N345        C349   1.353       .  A
N346        C347   1.344       .  A
C347        C348   1.380       .  A
C347        H350   1.082       .  S
C348        C349   1.393       .  A
C349        H351   1.082       .  S
N352        N353   1.319       .  A
N352        C356   1.346       .  A
N353        C354   1.345   1_655  A
C354        C355   1.386       .  A
C354        H357   1.082       .  S
C355        C356   1.387   1_455  A
C355        C697   1.483       .  S
C356        H358   1.082       .  S
N359        N360   1.322       .  A
N359        C363   1.344       .  A
N359       Cu367   2.074       .  S
N360        C361   1.349       .  A
N360       Cu366   2.096       .  S
C361        C362   1.393       .  A
C361        H364   1.080       .  S
C362        C363   1.387       .  A
C362        C589   1.496       .  S
C363        H365   1.082       .  S
Cu366       N369   2.097       .  S
Cu367       N377   2.073       .  S
Cu368       N370   2.078       .  S
Cu368       N376   2.077       .  S
N369        N370   1.324       .  A
N369        C373   1.349       .  A
N370        C371   1.346       .  A
C371        C372   1.383       .  A
C371        H374   1.082       .  S
C372        C373   1.387       .  A
C373        H375   1.082       .  S
N376        N377   1.321       .  A
N376        C380   1.346       .  A
N377        C378   1.345       .  A
C378        C379   1.385       .  A
C378        H381   1.082       .  S
C379        C380   1.385       .  A
C379        C649   1.480       .  S
C380        H382   1.082       .  S
N383        N384   1.322       .  A
N383        C387   1.340       .  A
N383       Cu391   2.056       .  S
N384        C385   1.349       .  A
N384       Cu390   2.091       .  S
C385        C386   1.390       .  A
C385        H388   1.082       .  S
C386        C387   1.381       .  A
C386        C580   1.482       .  S
C387        H389   1.082       .  S
Cu390       N393   2.092       .  S
Cu391       N401   2.055       .  S
Cu392       N394   2.061       .  S
Cu392       N400   2.060       .  S
N393        N394   1.324       .  A
N393        C397   1.348       .  A
N394        C395   1.342       .  A
C395        C396   1.378       .  A
C395        H398   1.082       .  S
C396        C397   1.385       .  A
C397        H399   1.082       .  S
N400        N401   1.320       .  A
N400        C404   1.343       .  A
N401        C402   1.341   1_655  A
C402        C403   1.382       .  A
C402        H405   1.082       .  S
C403        C404   1.383   1_455  A
C403        C628   1.472       .  S
C404        H406   1.082       .  S
N407        N408   1.322   1_655  A
N407        C411   1.342       .  A
N407       Cu415   2.066       .  S
N408        C409   1.351       .  A
N408       Cu414   2.101       .  S
C409        C410   1.392       .  A
C409        H412   1.082       .  S
C410        C411   1.384   1_455  A
C410        C601   1.491       .  S
C411        H413   1.081       .  S
Cu414       N417   2.101       .  S
Cu415       N425   2.065       .  S
Cu416       N418   2.069       .  S
Cu416       N424   2.068   1_455  S
N417        N418   1.325       .  A
N417        C421   1.350       .  A
N418        C419   1.344       .  A
C419        C420   1.380       .  A
C419        H422   1.082       .  S
C420        C421   1.387       .  A
C420        C477   1.486       .  S
C421        H423   1.082       .  S
N424        N425   1.320       .  A
N424        C428   1.344       .  A
N425        C426   1.344       .  A
C426        C427   1.385       .  A
C426        H429   1.081       .  S
C427        C428   1.387       .  A
C427        C748   1.481       .  S
C428        H430   1.082       .  S
N431        N432   1.322       .  A
N431        C435   1.340       .  A
N431       Cu439   2.067       .  S
N432        C433   1.351       .  A
N432       Cu438   2.097       .  S
C433        C434   1.393       .  A
C433        H436   1.082       .  S
C434        C435   1.383       .  A
C434        C724   1.491       .  S
C435        H437   1.080       .  S
Cu438       N441   2.098       .  S
Cu439       N449   2.068       .  S
Cu440       N442   2.067       .  S
Cu440       N448   2.068       .  S
N441        N442   1.324       .  A
N441        C445   1.350       .  A
N442        C443   1.343       .  A
C443        C444   1.380       .  A
C443        H446   1.082       .  S
C444        C445   1.389       .  A
C444        C476   1.489       .  S
C445        H447   1.082       .  S
N448        N449   1.319       .  A
N448        C452   1.345       .  A
N449        C450   1.345       .  A
C450        C451   1.386       .  A
C450        H453   1.082       .  S
C451        C452   1.385       .  A
C451        C772   1.481       .  S
C452        H454   1.082       .  S
N455        C460   1.357       .  A
N455        C459   1.357       .  A
N455        H487   1.036       .  S
N456        C463   1.353       .  A
N456        C464   1.354       .  A
N457        C462   1.355       .  A
N457        C461   1.355       .  A
N457        H488   1.034       .  S
N458        C465   1.353       .  A
N458        C466   1.353       .  A
C459        C467   1.386       .  A
C459        C475   1.422       .  A
C460        C476   1.424       .  A
C460        C468   1.388       .  A
C461        C469   1.389       .  A
C461        C478   1.421       .  A
C462        C477   1.418       .  A
C462        C470   1.386       .  A
C463        C475   1.416       .  A
C463        C471   1.386       .  A
C464        C478   1.418       .  A
C464        C472   1.387       .  A
C465        C473   1.388       .  A
C465        C476   1.417       .  A
C466        C474   1.385       .  A
C466        C477   1.416       .  A
C467        C468   1.373       .  A
C467        H479   1.082       .  S
C468        H480   1.080       .  S
C469        C470   1.373       .  A
C469        H481   1.080       .  S
C470        H482   1.082       .  S
C471        C472   1.372       .  A
C471        H483   1.082       .  S
C472        H484   1.082       .  S
C473        C474   1.372       .  A
C473        H485   1.081       .  S
C474        H486   1.082       .  S
C475        C526   1.491       .  S
C478        C502   1.487       .  S
N489        N490   1.322   1_655  A
N489        C493   1.341       .  A
N489       Cu497   2.066       .  S
N490        C491   1.348       .  A
N490       Cu496   2.088       .  S
C491        C492   1.390   1_455  A
C491        H494   1.081       .  S
C492        C493   1.383       .  A
C492        C565   1.486       .  S
C493        H495   1.082       .  S
Cu496       N499   2.089       .  S
Cu497       N507   2.065       .  S
Cu498       N500   2.071       .  S
Cu498       N506   2.071   1_455  S
N499        N500   1.324       .  A
N499        C503   1.348       .  A
N500        C501   1.344       .  A
C501        C502   1.381       .  A
C501        H504   1.082       .  S
C502        C503   1.386       .  A
C503        H505   1.082       .  S
N506        N507   1.320       .  A
N506        C510   1.345       .  A
N507        C508   1.344       .  A
C508        C509   1.383       .  A
C508        H511   1.082       .  S
C509        C510   1.385       .  A
C509        C796   1.477       .  S
C510        H512   1.082       .  S
N513        N514   1.322       .  A
N513        C517   1.341       .  A
N513       Cu521   2.059       .  S
N514        C515   1.349       .  A
N514       Cu520   2.094       .  S
C515        C516   1.390       .  A
C515        H518   1.082       .  S
C516        C517   1.381       .  A
C516        C553   1.484       .  S
C517        H519   1.082       .  S
Cu520       N523   2.095       .  S
Cu521       N531   2.059       .  S
Cu522       N524   2.078       .  S
Cu522       N530   2.077       .  S
N523        N524   1.324       .  A
N523        C527   1.349       .  A
N524        C525   1.345       .  A
C525        C526   1.383       .  A
C525        H528   1.082       .  S
C526        C527   1.387       .  A
C527        H529   1.082       .  S
N530        N531   1.321       .  A
N530        C534   1.345       .  A
N531        C532   1.343       .  A
C532        C533   1.381       .  A
C532        H535   1.082       .  S
C533        C534   1.386       .  A
C533        C820   1.477       .  S
C534        H536   1.082       .  S
C537        C538   1.412       .  A
C537        C542   1.399       .  A
C537        C832   1.480       .  S
C538        C539   1.405       .  A
C538        C568   1.483       .  S
C539        C540   1.406       .  A
C539        H544   1.084   1_655  S
C540        C541   1.417       .  A
C540        C664   1.494   1_655  S
C541        C542   1.402       .  A
C541        C577   1.479   1_545  S
C542        H543   1.085   1_545  S
C545        C546   1.415       .  A
C545        C550   1.406       .  A
C545        C808   1.489       .  S
C546        C547   1.401       .  A
C546        C556   1.482       .  S
C547        C548   1.404       .  A
C547        H552   1.085       .  S
C548        C549   1.416       .  A
C548        C640   1.484       .  S
C549        C550   1.405       .  A
C549        C592   1.488       .  S
C550        H551   1.084       .  S
C553        C554   1.405       .  A
C553        C558   1.417       .  A
C554        C555   1.406       .  A
C554        H563   1.082       .  S
C555        C556   1.409       .  A
C555        S559   1.804       .  S
C556        C557   1.400       .  A
C557        C558   1.397       .  A
C557        H564   1.084       .  S
C558        S560   1.803       .  S
S559        H562   1.406       .  S
S560        H561   1.407       .  S
C565        C566   1.406       .  A
C565        C570   1.415       .  A
C566        C567   1.397       .  A
C566        H575   1.083       .  S
C567        C568   1.411       .  A
C567        S571   1.804       .  S
C568        C569   1.403       .  A
C569        C570   1.401       .  A
C569        H576   1.083       .  S
C570        S572   1.801   1_655  S
S571        H574   1.405       .  S
S572        H573   1.407   1_455  S
C577        C578   1.403       .  A
C577        C582   1.411       .  A
C578        C579   1.400       .  A
C578        H587   1.084   1_565  S
C579        C580   1.415       .  A
C579        S583   1.801       .  S
C580        C581   1.406       .  A
C581        C582   1.396       .  A
C581        H588   1.084       .  S
C582        S584   1.806       .  S
S583        H586   1.406       .  S
S584        H585   1.405   1_655  S
C589        C590   1.409       .  A
C589        C594   1.419       .  A
C590        C591   1.401       .  A
C590        H599   1.083       .  S
C591        C592   1.411       .  A
C591        S595   1.800       .  S
C592        C593   1.402       .  A
C593        C594   1.402       .  A
C593        H600   1.084       .  S
C594        S596   1.800       .  S
S595        H598   1.406       .  S
S596        H597   1.407       .  S
C601        C602   1.407       .  A
C601        C606   1.418   1_455  A
C602        C603   1.406       .  A
C602        H611   1.083       .  S
C603        C604   1.414   1_455  A
C603        S607   1.799       .  S
C604        C605   1.403       .  A
C605        C606   1.399       .  A
C605        H612   1.084       .  S
C606        S608   1.803       .  S
S607        H610   1.406       .  S
S608        H609   1.407   1_655  S
C613        C614   1.405       .  A
C613        C618   1.416       .  A
C614        C615   1.399       .  A
C614        H623   1.084       .  S
C615        C616   1.416       .  A
C615        S619   1.804   1_556  S
C616        C617   1.409       .  A
C617        C618   1.409       .  A
C617        H624   1.084       .  S
C618        S620   1.800       .  S
S619        H622   1.401       .  S
S620        H621   1.406       .  S
C625        C626   1.403       .  A
C625        C630   1.413       .  A
C626        C627   1.398       .  A
C626        H635   1.084       .  S
C627        C628   1.412       .  A
C627        S631   1.803       .  S
C628        C629   1.402       .  A
C629        C630   1.395       .  A
C629        H636   1.084       .  S
C630        S632   1.803       .  S
S631        H634   1.407       .  S
S632        H633   1.407       .  S
C637        C638   1.404       .  A
C637        C642   1.414       .  A
C638        C639   1.397       .  A
C638        H647   1.084       .  S
C639        C640   1.416       .  A
C639        S643   1.810       .  S
C640        C641   1.405       .  A
C641        C642   1.403       .  A
C641        H648   1.084       .  S
C642        S644   1.801       .  S
S643        H646   1.402       .  S
S644        H645   1.406       .  S
C649        C650   1.403       .  A
C649        C654   1.414       .  A
C650        C651   1.399       .  A
C650        H659   1.084       .  S
C651        C652   1.414       .  A
C651        S655   1.803       .  S
C652        C653   1.403       .  A
C653        C654   1.400       .  A
C653        H660   1.084       .  S
C654        S656   1.803       .  S
S655        H658   1.407       .  S
S656        H657   1.407       .  S
C661        C662   1.404       .  A
C661        C666   1.418       .  A
C662        C663   1.402       .  A
C662        H671   1.083       .  S
C663        C664   1.416       .  A
C663        S667   1.802   1_455  S
C664        C665   1.404       .  A
C665        C666   1.400       .  A
C665        H672   1.083   1_545  S
C666        S668   1.803   1_545  S
S667        H670   1.406       .  S
S668        H669   1.407       .  S
C673        C674   1.402       .  A
C673        C678   1.415       .  A
C674        C675   1.397       .  A
C674        H683   1.084       .  S
C675        C676   1.413       .  A
C675        S679   1.803       .  S
C676        C677   1.402       .  A
C677        C678   1.399       .  A
C677        H684   1.084       .  S
C678        S680   1.803       .  S
S679        H682   1.407       .  S
S680        H681   1.407       .  S
C685        C686   1.411       .  A
C685        C690   1.420       .  A
C686        C687   1.400       .  A
C686        H695   1.082       .  S
C687        C688   1.410       .  A
C687        S691   1.800       .  S
C688        C689   1.404       .  A
C689        C690   1.403       .  A
C689        H696   1.084   1_455  S
C690        S692   1.798       .  S
S691        H694   1.406   1_556  S
S692        H693   1.407       .  S
C697        C698   1.405       .  A
C697        C702   1.414       .  A
C698        C699   1.401       .  A
C698        H707   1.084       .  S
C699        C700   1.414       .  A
C699        S703   1.802       .  S
C700        C701   1.405       .  A
C701        C702   1.400       .  A
C701        H708   1.084       .  S
C702        S704   1.803       .  S
S703        H706   1.407       .  S
S704        H705   1.407       .  S
C709        C710   1.398       .  A
C709        C714   1.409       .  A
C710        C711   1.398       .  A
C710        H719   1.084   1_556  S
C711        C712   1.420       .  A
C711        S715   1.803       .  S
C712        C713   1.407       .  A
C713        C714   1.407       .  A
C713        H720   1.082       .  S
C714        S716   1.806   1_565  S
S715        H718   1.407       .  S
S716        H717   1.407       .  S
C721        C722   1.397       .  A
C721        C726   1.414       .  A
C722        C723   1.396       .  A
C722        H731   1.085       .  S
C723        C724   1.420       .  A
C723        S727   1.802       .  S
C724        C725   1.407       .  A
C725        C726   1.404       .  A
C725        H732   1.083       .  S
C726        S728   1.808       .  S
S727        H730   1.407       .  S
S728        H729   1.403       .  S
C733        C734   1.404       .  A
C733        C738   1.413       .  A
C734        C735   1.404       .  A
C734        H743   1.081       .  S
C735        C736   1.415       .  A
C735        S739   1.801       .  S
C736        C737   1.408       .  A
C737        C738   1.403       .  A
C737        H744   1.083       .  S
C738        S740   1.805   1_556  S
S739        H742   1.407       .  S
S740        H741   1.406   1_545  S
C745        C746   1.403       .  A
C745        C750   1.413       .  A
C746        C747   1.400       .  A
C746        H755   1.084       .  S
C747        C748   1.415       .  A
C747        S751   1.803       .  S
C748        C749   1.403       .  A
C749        C750   1.397       .  A
C749        H756   1.083       .  S
C750        S752   1.802       .  S
S751        H754   1.407       .  S
S752        H753   1.406       .  S
C757        C758   1.407       .  A
C757        C762   1.417       .  A
C758        C759   1.401       .  A
C758        H767   1.083       .  S
C759        C760   1.414       .  A
C759        S763   1.804       .  S
C760        C761   1.405       .  A
C761        C762   1.405       .  A
C761        H768   1.081       .  S
C762        S764   1.801   1_545  S
S763        H766   1.406       .  S
S764        H765   1.407   1_565  S
C769        C770   1.405       .  A
C769        C774   1.418       .  A
C770        C771   1.398       .  A
C770        H779   1.083       .  S
C771        C772   1.412       .  A
C771        S775   1.803       .  S
C772        C773   1.403       .  A
C773        C774   1.401       .  A
C773        H780   1.084       .  S
C774        S776   1.802       .  S
S775        H778   1.407       .  S
S776        H777   1.407       .  S
C781        C782   1.404       .  A
C781        C786   1.417       .  A
C782        C783   1.403       .  A
C782        H791   1.083       .  S
C783        C784   1.420       .  A
C783        S787   1.802       .  S
C784        C785   1.404       .  A
C785        C786   1.401       .  A
C785        H792   1.083       .  S
C786        S788   1.802       .  S
S787        H790   1.407       .  S
S788        H789   1.403       .  S
C793        C794   1.405       .  A
C793        C798   1.414       .  A
C794        C795   1.400       .  A
C794        H803   1.083       .  S
C795        C796   1.413       .  A
C795        S799   1.803       .  S
C796        C797   1.402       .  A
C797        C798   1.399       .  A
C797        H804   1.084       .  S
C798        S800   1.803       .  S
S799        H802   1.406       .  S
S800        H801   1.407       .  S
C805        C806   1.405       .  A
C805        C810   1.418       .  A
C806        C807   1.401       .  A
C806        H815   1.083       .  S
C807        C808   1.416       .  A
C807        S811   1.807       .  S
C808        C809   1.403       .  A
C809        C810   1.400       .  A
C809        H816   1.083       .  S
C810        S812   1.802       .  S
S811        H814   1.403       .  S
S812        H813   1.407       .  S
C817        C818   1.405       .  A
C817        C822   1.415       .  A
C818        C819   1.396       .  A
C818        H827   1.083       .  S
C819        C820   1.411       .  A
C819        S823   1.803       .  S
C820        C821   1.404       .  A
C821        C822   1.400       .  A
C821        H828   1.084       .  S
C822        S824   1.803       .  S
S823        H826   1.407       .  S
S824        H825   1.407       .  S
C829        C830   1.406   1_545  A
C829        C834   1.419       .  A
C830        C831   1.402       .  A
C830        H839   1.083       .  S
C831        C832   1.413   1_565  A
C831        S835   1.806       .  S
C832        C833   1.399       .  A
C833        C834   1.397       .  A
C833        H840   1.084       .  S
C834        S836   1.803       .  S
S835        H838   1.404       .  S
S836        H837   1.407       .  S
