geometry optimzed in LAMMPS
_audit_creation_date              2020-11-30 
_audit_creation_method            'lammps2cif' 
_symmetry_space_group_name_H-M    'P1' 
_symmetry_Int_Tables_number       1 
_symmetry_cell_setting            triclinic 
loop_ 
_symmetry_equiv_pos_as_xyz 
  x,y,z 
_cell_length_a                    27.89871819 
_cell_length_b                    30.018252470909985 
_cell_length_c                    43.42090260151755 
_cell_angle_alpha                 89.90281665022778 
_cell_angle_beta                  89.95143335611411 
_cell_angle_gamma                 89.83571259976007 
loop_ 
_atom_site_label 
_atom_site_type_symbol 
_atom_site_fract_x 
_atom_site_fract_y 
_atom_site_fract_z 
_atom_site_charge 
O1          O  0.97843040  0.92960766  0.03040990    -0.88100
C2          C  0.92144162  0.05330341  0.01909523     0.88000
Mg3        Mg  0.05058231  0.91902680  0.04510203     1.58100
O4          O  0.94730209  0.99701136  0.95028992    -0.87800
O5          O  0.93141727  0.91188794  0.99193505    -0.75100
C6          C  0.18068089  0.05290585  0.95722689     0.93000
O7          O  0.00201383  0.01920493  0.06834279    -0.74900
O8          O  0.18053982  0.03671722  0.98432517    -0.82400
Mg9        Mg  0.93685720  0.97543624  0.05770227     1.58000
C10         C  0.01787429  0.06160303  0.87958306     0.92900
O11         O  0.86885449  0.93453928  0.05245411    -0.80700
H12         H  0.93986778  0.94402775  0.92289103    -0.06000
C13         C  0.04829530  0.08538499  0.97938011     0.87900
O14         O  0.07560449  0.90833702  0.99533054    -0.75200
O15         O  0.92179119  0.01228129  0.01658543    -0.88000
O16         O  0.97978561  0.06419389  0.89579344    -0.80800
C17         C  0.84242900  0.06790681  0.94610131     0.93100
C18         C  0.83157883  0.93155449  0.03571150     0.92900
Mg19       Mg  0.07390778  0.01096944  0.93510290     1.58000
O20         O  0.14406912  0.05083140  0.93970612    -0.80700
O21         O  0.00788582  0.96751936  0.92531299    -0.74900
O22         O  0.84145288  0.03473513  0.96454126    -0.80800
O23         O  0.95228968  0.93751553  0.10198077    -0.82500
O24         O  0.16838071  0.95455750  0.03088870    -0.80800
C25         C  0.96364279  0.96893385  0.93226450     0.87400
O26         O  0.08917332  0.97468857  0.97647575    -0.88000
O27         O  0.03184084  0.05717355  0.96161275    -0.88100
O28         O  0.07805804  0.07516572  0.00037569    -0.75100
Mg29       Mg  0.88974678  0.97554556  0.97924960     1.58000
O30         O  0.88138990  0.08081666  0.93369982    -0.82500
H31         H  0.97438027  0.86752190  0.01403077    -0.06200
O32         O  0.06182531  0.99001210  0.04265946    -0.87800
H33         H  0.07026764  0.04206573  0.07077232    -0.06000
H34         H  0.10235107  0.91918811  0.95252004    -0.06200
C35         C  0.04611255  0.01764823  0.06119028     0.87300
C36         C  0.96174473  0.90154330  0.01258891     0.87900
C37         C  0.09021567  0.93372526  0.97392414     0.88000
H38         H  0.03585196  0.11943719  0.97762333    -0.06200
O39         O  0.93550077  0.07856622  0.99741661    -0.75200
Mg40       Mg  0.11963251  0.01199299  0.01412002     1.58000
H41         H  0.91025996  0.06801424  0.04065422    -0.06200
C42         C  0.99131169  0.92182786  0.11265700     0.92900
O43         O  0.12682177  0.90697736  0.05980127    -0.82500
C44         C  0.16638006  0.92159573  0.04943812     0.93000
O45         O  0.82916972  0.94988357  0.00932751    -0.82400
Mg46       Mg  0.95899758  0.06752592  0.94728235     1.58200
O47         O  0.02909749  0.91960025  0.09625308    -0.80800
O48         O  0.05761202  0.04830537  0.89075816    -0.82500
C49         C  0.99148881  0.20648180  0.64529070     0.45800
H50         H  0.98882308  0.16960989  0.64414857    -0.03300
C51         C  0.99853727  0.29297584  0.64766858     0.45800
H52         H  0.00087527  0.32985914  0.64854625    -0.03300
C53         C  0.99290918  0.22470240  0.67837035    -0.17000
C54         C  0.03704102  0.22479080  0.62984932    -0.16700
C55         C  0.94937251  0.23101225  0.62982192    -0.17100
C56         C  0.99752847  0.27036324  0.67962928    -0.17100
C57         C  0.04090122  0.27054845  0.63086709    -0.16600
C58         C  0.95314227  0.27662042  0.63111346    -0.17000
O59         O  0.03360001  0.43551761  0.96773427    -0.88100
C60         C  0.08211030  0.56329773  0.97191059     0.88000
Mg61       Mg  0.96128733  0.41924728  0.95596361     1.58100
O62         O  0.06317906  0.51323868  0.04418836    -0.87800
O63         O  0.08314625  0.42506717  0.00621778    -0.75100
C64         C  0.82762127  0.55613777  0.04057864     0.93000
O65         O  0.00118845  0.51990921  0.92713989    -0.74900
O66         O  0.82705647  0.53551929  0.01499596    -0.82400
Mg67       Mg  0.07045945  0.48116199  0.93751691     1.58000
C68         C  0.99404919  0.58160496  0.11346513     0.92900
O69         O  0.14288353  0.44442210  0.94275337    -0.80700
H70         H  0.07707758  0.46428673  0.07417019    -0.06000
C71         C  0.95481839  0.59214775  0.01336453     0.87900
O72         O  0.94063389  0.41272653  0.00700190    -0.75200
O73         O  0.08506304  0.52272966  0.97650287    -0.88000
O74         O  0.02927527  0.58624789  0.09507714    -0.80800
C75         C  0.16320644  0.58827409  0.04428136     0.93100
C76         C  0.18056480  0.44602002  0.95938810     0.92900
Mg77       Mg  0.93781677  0.52148945  0.06242439     1.58000
O78         O  0.86521868  0.55826915  0.05728587    -0.80700
O79         O  0.00712124  0.48278335  0.07259931    -0.74900
O80         O  0.16591713  0.55407756  0.02688505    -0.80800
O81         O  0.05415846  0.43952394  0.89498999    -0.82500
O82         O  0.84142214  0.44989572  0.97119271    -0.80800
C83         C  0.05059399  0.48639698  0.06424785     0.87400
O84         O  0.92271930  0.47980276  0.02323981    -0.88000
O85         O  0.97450850  0.56712627  0.03213850    -0.88100
O86         O  0.92480708  0.57775497  0.99382891    -0.75100
Mg87       Mg  0.12067163  0.49185510  0.01504969     1.58000
O88         O  0.12334617  0.60133612  0.05524085    -0.82500
H89         H  0.04315571  0.37584959  0.98731877    -0.06200
O90         O  0.94494067  0.48957536  0.95544268    -0.87800
H91         H  0.93128845  0.53860139  0.92547019    -0.06000
H92         H  0.91648153  0.42599924  0.05011751    -0.06200
C93         C  0.95767470  0.51642143  0.93542934     0.87300
C94         C  0.05310131  0.41062333  0.98669527     0.87900
C95         C  0.92558548  0.43918806  0.02768580     0.88000
H96         H  0.96456935  0.62697448  0.01290819    -0.06200
O97         O  0.06707879  0.58986273  0.99251882    -0.75200
Mg98       Mg  0.88742109  0.51106688  0.98456471     1.58000
H99         H  0.09109034  0.57633565  0.94941617    -0.06200
C100        C  0.01523364  0.42163356  0.88609820     0.92900
O101        O  0.88466547  0.40091817  0.94418869    -0.82500
C102        C  0.84465660  0.41552993  0.95402921     0.93000
O103        O  0.18133485  0.46676839  0.98490982    -0.82400
Mg104      Mg  0.04686988  0.58335182  0.04357803     1.58200
O105        O  0.97955928  0.41691972  0.90420129    -0.80800
O106        O  0.95500576  0.56324637  0.10512001    -0.82500
C107        C  0.99770593  0.79723436  0.35542016     0.45800
H108        H  0.00314613  0.83363411  0.35576422    -0.03300
C109        C  0.98715473  0.71105262  0.35225722     0.45800
H110        H  0.98198345  0.67455065  0.35103315    -0.03300
C111        C  0.99872869  0.77943941  0.32236465    -0.17000
C112        C  0.03614573  0.77011877  0.37346603    -0.16700
C113        C  0.94908614  0.78151013  0.36812859    -0.17100
C114        C  0.99431612  0.73406006  0.32059850    -0.17100
C115        C  0.03102429  0.72447541  0.37134592    -0.16600
C116        C  0.94449479  0.73556919  0.36762587    -0.17000
O117        O  0.51953488  0.94482710  0.46207669    -0.88100
C118        C  0.56906695  0.07133528  0.47288238     0.88000
Mg119      Mg  0.44672057  0.92915343  0.45161209     1.58100
O120        O  0.55619624  0.01049873  0.54158459    -0.87800
O121        O  0.57311518  0.92815167  0.49707155    -0.75100
C122        C  0.32022407  0.05536396  0.54746441     0.93000
O123        O  0.48359643  0.03397333  0.42793993    -0.74900
O124        O  0.31684355  0.03776894  0.52095351    -0.82400
Mg125      Mg  0.55340549  0.99441339  0.43364579     1.58000
C126        C  0.48883895  0.07051168  0.61696962     0.92900
O127        O  0.62495444  0.95768736  0.43304693    -0.80700
H128        H  0.57079316  0.95702997  0.56747486    -0.06000
C129        C  0.44555528  0.09356817  0.51896039     0.87900
O130        O  0.43028082  0.91612163  0.50252661    -0.75200
O131        O  0.57184458  0.03028797  0.47438605    -0.88000
O132        O  0.52541619  0.07534127  0.59956054    -0.80800
C133        C  0.65555544  0.08598894  0.54260583     0.93100
C134        C  0.66452873  0.95554142  0.44742331     0.92900
Mg135      Mg  0.43119039  0.01693975  0.56360572     1.58000
O136        O  0.35883779  0.05444950  0.56313249    -0.80700
O137        O  0.50121422  0.97684985  0.56919133    -0.74900
O138        O  0.65702025  0.05449237  0.52285487    -0.80800
O139        O  0.53482157  0.95685562  0.39075384    -0.82500
O140        O  0.32861808  0.95598832  0.47353724    -0.80800
C141        C  0.54421514  0.98090788  0.55987898     0.87400
O142        O  0.41337144  0.98087599  0.52285125    -0.88000
O143        O  0.46619651  0.06621993  0.53571265    -0.88100
O144        O  0.41386715  0.08187950  0.49958007    -0.75100
Mg145      Mg  0.61133724  0.99351198  0.50883347     1.58000
O146        O  0.61710336  0.09621274  0.55673125    -0.82500
H147        H  0.53084547  0.88230595  0.47626978    -0.06200
O148        O  0.42956045  0.99902973  0.45541462    -0.87800
H149        H  0.41348257  0.05188453  0.42930366    -0.06000
H150        H  0.40903750  0.92416882  0.54685054    -0.06200
C151        C  0.44070174  0.02869640  0.43698506     0.87300
C152        C  0.54091940  0.91696740  0.47796663     0.87900
C153        C  0.41653437  0.93994237  0.52497586     0.88000
H154        H  0.45577660  0.12823448  0.52019222    -0.06200
O155        O  0.55611422  0.09462913  0.49583250    -0.75200
Mg156      Mg  0.37484991  0.01663175  0.48761254     1.58000
H157        H  0.57645559  0.08772364  0.45120892    -0.06200
C158        C  0.49729243  0.93701304  0.38165775     0.92900
O159        O  0.36954650  0.91122576  0.44201674    -0.82500
C160        C  0.33068696  0.92290559  0.45512505     0.93000
O161        O  0.66939260  0.97203265  0.47431209    -0.82400
Mg162      Mg  0.53960222  0.08018393  0.54674346     1.58200
O163        O  0.46119350  0.93154120  0.39926453    -0.80800
O164        O  0.45009403  0.05354796  0.60715794    -0.82500
C165        C  0.50297619  0.70656205  0.14995646     0.45800
H166        H  0.49744815  0.67045174  0.15173270    -0.03300
C167        C  0.50985583  0.79285896  0.14584286     0.45800
H168        H  0.51274774  0.82957483  0.14402668    -0.03300
C169        C  0.50466699  0.73081080  0.18158473    -0.17000
C170        C  0.54847042  0.72168256  0.13229659    -0.16700
C171        C  0.46134500  0.72811676  0.13228762    -0.17100
C172        C  0.50789646  0.77647803  0.17920385    -0.17100
C173        C  0.55300870  0.76789028  0.13184939    -0.16600
C174        C  0.46495562  0.77347562  0.13004691    -0.17000
O175        O  0.47182553  0.44425098  0.53777006    -0.88100
C176        C  0.40567097  0.56483062  0.53186615     0.88000
Mg177      Mg  0.54500227  0.43567173  0.55083906     1.58100
O178        O  0.43636784  0.51700088  0.46070706    -0.87800
O179        O  0.42587050  0.42702207  0.49878322    -0.75100
C180        C  0.66591120  0.58381893  0.46979972     0.93000
O181        O  0.49041516  0.53160808  0.57792002    -0.74900
O182        O  0.66682948  0.56357593  0.49545347    -0.82400
Mg183      Mg  0.42754638  0.48506233  0.56692093     1.58000
C184        C  0.50018273  0.59617534  0.39356887     0.92900
O185        O  0.36135193  0.43986549  0.56069672    -0.80700
H186        H  0.43114600  0.46827365  0.42956509    -0.06000
C187        C  0.53214794  0.60786854  0.49400350     0.87900
O188        O  0.56799837  0.43119879  0.50012449    -0.75200
O189        O  0.40850524  0.52422276  0.52747343    -0.88000
O190        O  0.46233590  0.59251926  0.40976992    -0.80800
C191        C  0.32685204  0.57924334  0.45697262     0.93100
C192        C  0.32471879  0.43639700  0.54328315     0.92900
Mg193      Mg  0.56085012  0.54109591  0.44528760     1.58000
O194        O  0.62890769  0.58350301  0.45246524    -0.80700
O195        O  0.49746482  0.49558045  0.43266502    -0.74900
O196        O  0.32718525  0.54477403  0.47425430    -0.80800
O197        O  0.44808238  0.44604930  0.60989498    -0.82500
O198        O  0.66136635  0.47690430  0.53763724    -0.80800
C199        C  0.45363435  0.49293176  0.44044063     0.87400
O200        O  0.57881589  0.49978512  0.48435246    -0.88000
O201        O  0.51661038  0.58102340  0.47493964    -0.88100
O202        O  0.56330618  0.59667318  0.51392210    -0.75100
Mg203      Mg  0.38014331  0.48884023  0.48837049     1.58000
O204        O  0.36541009  0.59710271  0.44750866    -0.82500
H205        H  0.47126334  0.38328478  0.51936158    -0.06200
O206        O  0.55226972  0.50701252  0.55162253    -0.87800
H207        H  0.55704027  0.55812705  0.58090334    -0.06000
H208        H  0.59190226  0.44722413  0.45738208    -0.06200
C209        C  0.53458841  0.53278422  0.57077194     0.87300
C210        C  0.45668665  0.41669283  0.51907819     0.87900
C211        C  0.58064182  0.45918702  0.47972352     0.88000
H212        H  0.51795624  0.64142379  0.49424665    -0.06200
O213        O  0.41871112  0.59284524  0.51160594    -0.75200
Mg214      Mg  0.60836147  0.53380009  0.52400822     1.58000
H215        H  0.39339436  0.57680157  0.55398498    -0.06200
C216        C  0.48899816  0.43340704  0.61954677     0.92900
O217        O  0.62291026  0.42404443  0.56372220    -0.82500
C218        C  0.66155851  0.44153647  0.55401435     0.93000
O219        O  0.32170384  0.45698260  0.51764273    -0.82400
Mg220      Mg  0.44292413  0.58835961  0.46123462     1.58200
O221        O  0.52561666  0.43274969  0.60200130    -0.80800
O222        O  0.54127743  0.58447247  0.40361194    -0.82500
C223        C  0.50283889  0.29248376  0.85446068     0.45800
H224        H  0.50454280  0.32944739  0.85402063    -0.03300
C225        C  0.49939975  0.20585686  0.85506211     0.45800
H226        H  0.49810144  0.16895249  0.85565419    -0.03300
C227        C  0.49810571  0.27167329  0.82215953    -0.17000
C228        C  0.54755285  0.27059517  0.86871271    -0.16700
C229        C  0.46031127  0.27395994  0.87309823    -0.17100
C230        C  0.49691190  0.22571080  0.82236436    -0.17100
C231        C  0.54560646  0.22471784  0.86934804    -0.16600
C232        C  0.45777521  0.22813832  0.87259456    -0.17000
C233        C  0.49443742  0.41636076  0.65142076    -0.11700
C234        C  0.46498721  0.43046248  0.67608057     0.03800
C235        C  0.46922119  0.40990888  0.70494150    -0.12200
C236        C  0.50295932  0.37595411  0.70996595     0.18700
C237        C  0.53377756  0.36334670  0.68585449    -0.09300
C238        C  0.52943308  0.38352735  0.65700869    -0.02200
H239        H  0.44560755  0.42001748  0.72349782     0.05200
C240        C  0.50181413  0.35096477  0.73931034     0.20600
H241        H  0.55257337  0.37223566  0.63853372     0.10400
C242        C  0.46350518  0.32195467  0.74455353    -0.15600
C243        C  0.46076974  0.29680826  0.77156296     0.03300
C244        C  0.49747211  0.29980415  0.79386112    -0.10900
C245        C  0.53514406  0.33000511  0.78897827    -0.00900
C246        C  0.53746590  0.35559527  0.76198307    -0.06100
H247        H  0.43542730  0.31892945  0.72745296     0.06400
H248        H  0.56326692  0.33319567  0.80602165     0.09700
Br249      Br  0.58058002  0.31704193  0.69048426    -0.05800
Br250      Br  0.41968203  0.47842561  0.67238449    -0.02700
Br251      Br  0.40469983  0.26106963  0.77681185     0.00100
Br252      Br  0.58917631  0.39698624  0.75725355    -0.04300
C253        C  0.49582894  0.61578777  0.36248563    -0.11700
C254        C  0.52032626  0.65515300  0.35455523     0.03800
C255        C  0.51519012  0.67327371  0.32505849    -0.12200
C256        C  0.48590405  0.65278301  0.30302528     0.18700
C257        C  0.46057125  0.61395150  0.31105213    -0.09300
C258        C  0.46519000  0.59607157  0.34078132    -0.02200
H259        H  0.53486003  0.70313593  0.31904087     0.05200
C260        C  0.48746247  0.66971152  0.27103627     0.20600
H261        H  0.44577711  0.56605572  0.34673496     0.10400
C262        C  0.52980927  0.66336249  0.25439306    -0.15600
C263        C  0.53614362  0.68263768  0.22544454     0.03300
C264        C  0.49880771  0.70756293  0.21178652    -0.10900
C265        C  0.45662063  0.71475882  0.22887522    -0.00900
C266        C  0.45057233  0.69584948  0.25818181    -0.06100
H267        H  0.55923032  0.64509948  0.26478763     0.06400
H268        H  0.42852250  0.73575060  0.21949482     0.09700
Br269      Br  0.42153841  0.58308937  0.28170965    -0.05800
Br270      Br  0.55979552  0.68639847  0.38348181    -0.02700
Br271      Br  0.59977358  0.68082933  0.20954094     0.00100
Br272      Br  0.39270294  0.70848076  0.28035233    -0.04300
C273        C  0.49733882  0.91796860  0.35017768    -0.11700
C274        C  0.47183059  0.87868016  0.34274659     0.03800
C275        C  0.47812206  0.85890311  0.31390561    -0.12200
C276        C  0.50941851  0.87729285  0.29217339     0.18700
C277        C  0.53411022  0.91667642  0.29907616    -0.09300
C278        C  0.52807243  0.93663149  0.32788505    -0.02200
H279        H  0.45893270  0.82856518  0.30848371     0.05200
C280        C  0.51433100  0.85531515  0.26207832     0.20600
H281        H  0.54818659  0.96651961  0.33304142     0.10400
C282        C  0.48488680  0.86919927  0.23791782    -0.15600
C283        C  0.48369932  0.84577319  0.21015527     0.03300
C284        C  0.51227222  0.80703537  0.20634945    -0.10900
C285        C  0.54498145  0.79601924  0.22985444    -0.00900
C286        C  0.54541006  0.81903971  0.25777816    -0.06100
H287        H  0.46151078  0.89773126  0.24108505     0.06400
H288        H  0.56969854  0.76870380  0.22684243     0.09700
Br289      Br  0.57731215  0.94345481  0.27012487    -0.05800
Br290      Br  0.43061925  0.84793376  0.37116716    -0.02700
Br291      Br  0.44067117  0.86893505  0.17989088     0.00100
Br292      Br  0.58773340  0.79895203  0.28973456    -0.04300
C293        C  0.49825250  0.19726979  0.79405247    -0.11700
C294        C  0.46697337  0.16077125  0.78969867     0.03800
C295        C  0.46925084  0.13577100  0.76254392    -0.12200
C296        C  0.50200525  0.14627826  0.73916192     0.18700
C297        C  0.53346871  0.18233652  0.74350320    -0.09300
C298        C  0.53201859  0.20679025  0.77089302    -0.02200
H299        H  0.44415535  0.10872788  0.75918153     0.05200
C300        C  0.49850026  0.12295779  0.70911146     0.20600
H301        H  0.55713592  0.23385525  0.77389641     0.10400
C302        C  0.45580790  0.12702846  0.69234630    -0.15600
C303        C  0.45145143  0.10888876  0.66286828     0.03300
C304        C  0.49083302  0.08658858  0.64923023    -0.10900
C305        C  0.53310304  0.08114847  0.66647529    -0.00900
C306        C  0.53675582  0.09818857  0.69646103    -0.06100
H307        H  0.42596447  0.14555041  0.70197412     0.06400
H308        H  0.56320550  0.06317121  0.65671840     0.09700
Br309      Br  0.57648832  0.20185749  0.71183248    -0.05800
Br310      Br  0.41714732  0.14527932  0.81809146    -0.02700
Br311      Br  0.39172111  0.11893908  0.64186868     0.00100
Br312      Br  0.59368565  0.08527992  0.71966612    -0.04300
C313        C  0.06510637  0.69178605  0.38621445    -0.11700
C314        C  0.08769098  0.65621406  0.37031884     0.03800
C315        C  0.12797633  0.63513599  0.38317356    -0.12200
C316        C  0.14514283  0.64729431  0.41229249     0.18700
C317        C  0.11907451  0.67845785  0.42965405    -0.09300
C318        C  0.07889684  0.69916538  0.41688832    -0.02200
H319        H  0.14666789  0.60978933  0.37007387     0.05200
C320        C  0.19130915  0.62909814  0.42365673     0.20600
H321        H  0.05912541  0.72205082  0.43088156     0.10400
C322        C  0.22966553  0.65845922  0.42823434    -0.15600
C323        C  0.27372228  0.64330391  0.43953412     0.03300
C324        C  0.28021580  0.59761266  0.44640617    -0.10900
C325        C  0.24169353  0.56824702  0.44166823    -0.00900
C326        C  0.19770644  0.58351885  0.43018977    -0.06100
H327        H  0.22512052  0.69359096  0.42315863     0.06400
H328        H  0.24601301  0.53301995  0.44641260     0.09700
Br329      Br  0.13740806  0.69486037  0.47069698    -0.05800
Br330      Br  0.06587599  0.63254241  0.33199452    -0.02700
Br331      Br  0.32233261  0.68735453  0.44638136     0.00100
Br332      Br  0.14732238  0.54098157  0.42441764    -0.04300
C333        C  0.90639597  0.71151896  0.38524859    -0.11700
C334        C  0.87766131  0.67780702  0.37217881     0.03800
C335        C  0.84039841  0.65901394  0.38915532    -0.12200
C336        C  0.83131792  0.67228883  0.41940218     0.18700
C337        C  0.86140762  0.70375065  0.43337881    -0.09300
C338        C  0.89836797  0.72334284  0.41624148    -0.02200
H339        H  0.81768094  0.63417681  0.37851328     0.05200
C340        C  0.78924457  0.65333230  0.43519244     0.20600
H341        H  0.92076083  0.74820128  0.42709705     0.10400
C342        C  0.79557653  0.61905235  0.45669611    -0.15600
C343        C  0.75610139  0.59626125  0.46881675     0.03300
C344        C  0.70906841  0.60819380  0.45942716    -0.10900
C345        C  0.70315889  0.64331466  0.43839205    -0.00900
C346        C  0.74262981  0.66560814  0.42624844    -0.06100
H347        H  0.83148630  0.60882879  0.46312602     0.06400
H348        H  0.66761372  0.65318973  0.43094988     0.09700
Br349      Br  0.85256361  0.72134992  0.47541308    -0.05800
Br350      Br  0.88448302  0.65639865  0.33119678    -0.02700
Br351      Br  0.76996290  0.54693655  0.49573138     0.00100
Br352      Br  0.73095353  0.71189094  0.39685328    -0.04300
C353        C  0.90770314  0.81246301  0.37510374    -0.11700
C354        C  0.91178420  0.85282308  0.39194145     0.03800
C355        C  0.87051069  0.87600298  0.40092792    -0.12200
C356        C  0.82484488  0.86183957  0.39213843     0.18700
C357        C  0.82087529  0.82567078  0.37181221    -0.09300
C358        C  0.86183214  0.80104654  0.36388203    -0.02200
H359        H  0.87396978  0.90539537  0.41521550     0.05200
C360        C  0.78241235  0.88438700  0.40573854     0.20600
H361        H  0.85769103  0.77261744  0.34880407     0.10400
C362        C  0.75235318  0.91083544  0.38735535    -0.15600
C363        C  0.71371125  0.93423580  0.40032171     0.03300
C364        C  0.70539922  0.93227839  0.43251609    -0.10900
C365        C  0.73564070  0.90576777  0.45074857    -0.00900
C366        C  0.77331800  0.88152941  0.43761393    -0.06100
H367        H  0.75927237  0.91362980  0.36287356     0.06400
H368        H  0.72920468  0.90294104  0.47528292     0.09700
Br369      Br  0.76055974  0.80872177  0.35436537    -0.05800
Br370      Br  0.97059656  0.88075606  0.40343714    -0.02700
Br371      Br  0.67523565  0.96970753  0.37289825     0.00100
Br372      Br  0.81030071  0.84340696  0.46403245    -0.04300
C373        C  0.28626558  0.89834314  0.44776309    -0.11700
C374        C  0.28570586  0.85148692  0.44508814     0.03800
C375        C  0.24414442  0.82984871  0.43507075    -0.12200
C376        C  0.20291208  0.85421725  0.42721219     0.18700
C377        C  0.20289515  0.90084824  0.43095928    -0.09300
C378        C  0.24420346  0.92244108  0.44141175    -0.02200
H379        H  0.24422231  0.79389141  0.43286764     0.05200
C380        C  0.16085308  0.83084332  0.41413196     0.20600
H381        H  0.24408127  0.95843107  0.44327812     0.10400
C382        C  0.11781282  0.82926258  0.43084694    -0.15600
C383        C  0.07682824  0.80927034  0.41842951     0.03300
C384        C  0.07828590  0.79151142  0.38829618    -0.10900
C385        C  0.12206584  0.79091373  0.37245547    -0.00900
C386        C  0.16308016  0.81036043  0.38500120    -0.06100
H387        H  0.11633629  0.84316878  0.45383794     0.06400
H388        H  0.12431775  0.77529000  0.35006963     0.09700
Br389      Br  0.14849363  0.93679607  0.42000005    -0.05800
Br390      Br  0.34016405  0.81537431  0.45568302    -0.02700
Br391      Br  0.02250206  0.80230756  0.44527251     0.00100
Br392      Br  0.22082840  0.80906642  0.36097721    -0.04300
C393        C  0.22431431  0.42250485  0.94861756    -0.11700
C394        C  0.27110180  0.43828863  0.95482205     0.03800
C395        C  0.31103633  0.41507780  0.94351427    -0.12200
C396        C  0.30540873  0.37622706  0.92609668     0.18700
C397        C  0.25904361  0.36003826  0.92028163    -0.09300
C398        C  0.21905433  0.38326617  0.93130674    -0.02200
H399        H  0.34669637  0.42774645  0.94793156     0.05200
C400        C  0.34817524  0.35337844  0.91360425     0.20600
H401        H  0.18362765  0.37031485  0.92652139     0.10400
C402        C  0.37215564  0.32176432  0.93170772    -0.15600
C403        C  0.41082477  0.29747672  0.91976060     0.03300
C404        C  0.42498066  0.30371706  0.88875883    -0.10900
C405        C  0.40334278  0.33803022  0.87159652    -0.00900
C406        C  0.36500439  0.36256958  0.88372416    -0.06100
H407        H  0.36063075  0.31590251  0.95519808     0.06400
H408        H  0.41450468  0.34410023  0.84805783     0.09700
Br409      Br  0.24873116  0.30620268  0.89751076    -0.05800
Br410      Br  0.28326181  0.49262911  0.97675335    -0.02700
Br411      Br  0.44506322  0.25923232  0.94763096     0.00100
Br412      Br  0.33554569  0.40735961  0.85844843    -0.04300
C413        C  0.59024655  0.29653472  0.87897563    -0.11700
C414        C  0.58747364  0.32909986  0.90235548     0.03800
C415        C  0.62944074  0.34814751  0.91402402    -0.12200
C416        C  0.67454635  0.33566960  0.90268641     0.18700
C417        C  0.67738716  0.30459131  0.87854847    -0.09300
C418        C  0.63548432  0.28558219  0.86676494    -0.02200
H419        H  0.62697176  0.37243067  0.93239867     0.05200
C420        C  0.71803548  0.35603824  0.91611474     0.20600
H421        H  0.63827967  0.26118492  0.84848568     0.10400
C422        C  0.74696532  0.33126225  0.93639499    -0.15600
C423        C  0.78808666  0.35017069  0.94956495     0.03300
C424        C  0.80022222  0.39464026  0.94277679    -0.10900
C425        C  0.77089536  0.41941561  0.92283814    -0.00900
C426        C  0.73036125  0.40038751  0.90933228    -0.06100
H427        H  0.73752477  0.29718415  0.94193394     0.06400
H428        H  0.78037468  0.45339647  0.91703833     0.09700
Br429      Br  0.73767488  0.28732163  0.86096392    -0.05800
Br430      Br  0.52830144  0.34736688  0.92076919    -0.02700
Br431      Br  0.82569313  0.31477204  0.97733660     0.00100
Br432      Br  0.69410643  0.43544711  0.88058587    -0.04300
C433        C  0.20825182  0.61148078  0.05329525    -0.11700
C434        C  0.20881625  0.65438924  0.06700820     0.03800
C435        C  0.25208382  0.67234899  0.07760882    -0.12200
C436        C  0.29509714  0.64850130  0.07496899     0.18700
C437        C  0.29501483  0.60652220  0.06079452    -0.09300
C438        C  0.25208219  0.58854292  0.04992888    -0.02200
H439        H  0.25209592  0.70483810  0.08846676     0.05200
C440        C  0.33922894  0.66669433  0.08879202     0.20600
H441        H  0.25295503  0.55563710  0.03975357     0.10400
C442        C  0.34932153  0.65728201  0.11968244    -0.15600
C443        C  0.38993458  0.67491827  0.13404186     0.03300
C444        C  0.42153178  0.70263775  0.11735856    -0.10900
C445        C  0.41232485  0.70996126  0.08587386    -0.00900
C446        C  0.37119214  0.69304018  0.07174000    -0.06100
H447        H  0.32492290  0.63664074  0.13284401     0.06400
H448        H  0.43664255  0.73001233  0.07236923     0.09700
Br449      Br  0.35255954  0.57185274  0.05695315    -0.05800
Br450      Br  0.15260163  0.69078510  0.07214237    -0.02700
Br451      Br  0.39791720  0.66109989  0.17659954     0.00100
Br452      Br  0.35906813  0.70796094  0.02950859    -0.04300
C453        C  0.78347388  0.57886104  0.05113283    -0.11700
C454        C  0.73756931  0.56005190  0.04691925     0.03800
C455        C  0.69677173  0.58308604  0.05692898    -0.12200
C456        C  0.70071740  0.62464774  0.07135196     0.18700
C457        C  0.74650441  0.64300602  0.07618469    -0.09300
C458        C  0.78731929  0.62020960  0.06600099    -0.02200
H459        H  0.66178438  0.56809241  0.05402980     0.05200
C460        C  0.65714949  0.64621836  0.08384512     0.20600
H461        H  0.82226733  0.63486948  0.06977018     0.10400
C462        C  0.63388502  0.62645904  0.10884631    -0.15600
C463        C  0.59520019  0.64740371  0.12346580     0.03300
C464        C  0.58049841  0.69076338  0.11382470    -0.10900
C465        C  0.59952555  0.70663711  0.08569942    -0.00900
C466        C  0.63820522  0.68555268  0.07124843    -0.06100
H467        H  0.64647068  0.59452779  0.11733987     0.06400
H468        H  0.58549136  0.73673230  0.07530785     0.09700
Br469      Br  0.75537039  0.69783940  0.09805639    -0.05800
Br470      Br  0.72839450  0.50146204  0.03023954    -0.02700
Br471      Br  0.56506729  0.61143593  0.15438728     0.00100
Br472      Br  0.66437472  0.71203975  0.03470027    -0.04300
C473        C  0.99751658  0.70966421  0.29076777    -0.11700
C474        C  0.04168858  0.70366747  0.27543947     0.03800
C475        C  0.04340779  0.68039709  0.24749087    -0.12200
C476        C  0.00118250  0.66552417  0.23326040     0.18700
C477        C  0.95683469  0.67453090  0.24750642    -0.09300
C478        C  0.95546633  0.69623762  0.27592372    -0.02200
H479        H  0.07772919  0.67479855  0.23645534     0.05200
C480        C  0.00337949  0.64263726  0.20297495     0.20600
H481        H  0.92112318  0.70524189  0.28543792     0.10400
C482        C  0.98502383  0.59926319  0.20013722    -0.15600
C483        C  0.98217323  0.57834945  0.17134730     0.03300
C484        C  0.99842563  0.60071746  0.14475754    -0.10900
C485        C  0.01904141  0.64312438  0.14789239    -0.00900
C486        C  0.02132970  0.66423286  0.17654534    -0.06100
H487        H  0.97207670  0.58191219  0.22038878     0.06400
H488        H  0.03195428  0.66068974  0.12771463     0.09700
Br489      Br  0.89684068  0.66131789  0.22797626    -0.05800
Br490      Br  0.10037716  0.72801138  0.29102172    -0.02700
Br491      Br  0.95778506  0.51870283  0.16985797     0.00100
Br492      Br  0.04630398  0.72371290  0.17777647    -0.04300
C493        C  0.08181622  0.29569192  0.61667426    -0.11700
C494        C  0.10807132  0.32856826  0.63276717     0.03800
C495        C  0.14771582  0.34886371  0.61896100    -0.12200
C496        C  0.16225731  0.33735911  0.58921934     0.18700
C497        C  0.13641946  0.30498598  0.57290762    -0.09300
C498        C  0.09634003  0.28487674  0.58647519    -0.02200
H499        H  0.16754639  0.37389523  0.63157169     0.05200
C500        C  0.20355874  0.36092372  0.57549845     0.20600
H501        H  0.07658116  0.26035247  0.57339336     0.10400
C502        C  0.25005330  0.34434462  0.58001997    -0.15600
C503        C  0.29006830  0.36799981  0.56938644     0.03300
C504        C  0.28370608  0.40892276  0.55369334    -0.10900
C505        C  0.23692052  0.42479585  0.54866310    -0.00900
C506        C  0.19712869  0.40146171  0.55975866    -0.06100
H507        H  0.25521645  0.31318293  0.59222335     0.06400
H508        H  0.23131059  0.45626126  0.53693005     0.09700
Br509      Br  0.15496770  0.28713911  0.53223680    -0.05800
Br510      Br  0.09443040  0.34689602  0.67394653    -0.02700
Br511      Br  0.35218345  0.34198286  0.57609558     0.00100
Br512      Br  0.13460832  0.42692778  0.55407593    -0.04300
C513        C  0.91469885  0.30744048  0.62035837    -0.11700
C514        C  0.91814908  0.33079567  0.59224592     0.03800
C515        C  0.87880016  0.35549272  0.58131342    -0.12200
C516        C  0.83607450  0.35802888  0.59837083     0.18700
C517        C  0.83359391  0.33639832  0.62714527    -0.09300
C518        C  0.87252045  0.31110587  0.63778497    -0.02200
H519        H  0.88117260  0.37200244  0.55915938     0.05200
C520        C  0.79331348  0.38072521  0.58515456     0.20600
H521        H  0.86963548  0.29361446  0.65956312     0.10400
C522        C  0.75843282  0.35505913  0.57020844    -0.15600
C523        C  0.71598815  0.37451476  0.55922681     0.03300
C524        C  0.70791004  0.42065287  0.56281576    -0.10900
C525        C  0.74359652  0.44660617  0.57688286    -0.00900
C526        C  0.78579475  0.42692912  0.58828953    -0.06100
H527        H  0.76396830  0.31953297  0.56749511     0.06400
H528        H  0.73783901  0.48200989  0.58006296     0.09700
Br529      Br  0.77744391  0.34032059  0.65249546    -0.05800
Br530      Br  0.97474611  0.32767216  0.56724624    -0.02700
Br531      Br  0.67077066  0.33677950  0.53869558    -0.02700
Br532      Br  0.83110118  0.46379137  0.60939381    -0.04300
C533        C  0.70048864  0.10982062  0.55035456    -0.11700
C534        C  0.70063300  0.15384881  0.56207183     0.03800
C535        C  0.74367933  0.17308860  0.57171513    -0.12200
C536        C  0.78683747  0.14934103  0.57004270     0.18700
C537        C  0.78722736  0.10621192  0.55758014    -0.09300
C538        C  0.74440620  0.08695528  0.54758372    -0.02200
H539        H  0.74335611  0.20640654  0.58129815     0.05200
C540        C  0.83010296  0.16851830  0.58415138     0.20600
H541        H  0.74530203  0.05324211  0.53873911     0.10400
C542        C  0.84121793  0.15682046  0.61449042    -0.15600
C543        C  0.88042693  0.17567102  0.62953418     0.03300
C544        C  0.90909203  0.20752627  0.61424860    -0.10900
C545        C  0.89859490  0.21797790  0.58337409    -0.00900
C546        C  0.85937389  0.19889750  0.56835053    -0.06100
H547        H  0.81877898  0.13320175  0.62666746     0.06400
H548        H  0.92109030  0.24099497  0.57082681     0.09700
Br549      Br  0.84526060  0.07198897  0.55493914    -0.05800
Br550      Br  0.64396660  0.19010586  0.56526679    -0.02700
Br551      Br  0.89071391  0.15716931  0.67110979     0.00100
Br552      Br  0.84711351  0.21491022  0.52633968    -0.04300
C553        C  0.07631005  0.19503951  0.61913726    -0.11700
C554        C  0.06990082  0.16412999  0.59508204     0.03800
C555        C  0.10900170  0.13901887  0.58450174    -0.12200
C556        C  0.15471376  0.14469312  0.59733503     0.18700
C557        C  0.16094980  0.17519250  0.62153848    -0.09300
C558        C  0.12181910  0.19950826  0.63253289    -0.02200
H559        H  0.10411074  0.11604972  0.56554930     0.05200
C560        C  0.19620679  0.12073525  0.58411788     0.20600
H561        H  0.12717765  0.22296994  0.65113864     0.10400
C562        C  0.22912201  0.14451565  0.56606107    -0.15600
C563        C  0.26998316  0.12360215  0.55423909     0.03300
C564        C  0.27810656  0.07816756  0.56022157    -0.10900
C565        C  0.24513334  0.05419513  0.57807658    -0.00900
C566        C  0.20430213  0.07519365  0.59007606    -0.06100
H567        H  0.22320017  0.17959622  0.56145756     0.06400
H568        H  0.25126688  0.01917741  0.58276382     0.09700
Br569      Br  0.22252228  0.18542135  0.63981282    -0.05800
Br570      Br  0.00992147  0.15777142  0.57408584    -0.02700
Br571      Br  0.31409939  0.15832708  0.53034501     0.00100
Br572      Br  0.16141873  0.04096898  0.61520124    -0.04300
C573        C  0.00233087  0.29640331  0.70856354    -0.11700
C574        C  0.03883932  0.28776642  0.73037359     0.03800
C575        C  0.03925142  0.31087887  0.75827564    -0.12200
C576        C  0.00446468  0.34323338  0.76475570     0.18700
C577        C  0.96963006  0.35362772  0.74244178    -0.09300
C578        C  0.96914400  0.33061279  0.71443181    -0.02200
H579        H  0.06695246  0.30365052  0.77505561     0.05200
C580        C  0.00479115  0.36480825  0.79528886     0.20600
H581        H  0.94148484  0.33813178  0.69767747     0.10400
C582        C  0.02984592  0.40474608  0.79944134    -0.15600
C583        C  0.03354913  0.42420688  0.82868070     0.03300
C584        C  0.01146631  0.40366661  0.85436056    -0.10900
C585        C  0.98558612  0.36406683  0.84980489    -0.00900
C586        C  0.98261643  0.34440729  0.82070133    -0.06100
H587        H  0.04705565  0.42052850  0.77990288     0.06400
H588        H  0.96864996  0.34757037  0.86915613     0.09700
Br589      Br  0.92106184  0.39762904  0.74979586    -0.05800
Br590      Br  0.09181462  0.24845208  0.72238457    -0.02700
Br591      Br  0.06770996  0.47944305  0.83167523     0.00100
Br592      Br  0.94911183  0.28894337  0.81674087    -0.04300
C593        C  0.58353417  0.19618091  0.88388401    -0.11700
C594        C  0.60560336  0.16018509  0.86830819     0.03800
C595        C  0.64495717  0.13832235  0.88152785    -0.12200
C596        C  0.66344225  0.15172782  0.91001195     0.18700
C597        C  0.64056126  0.18633234  0.92615553    -0.09300
C598        C  0.60043213  0.20749489  0.91340606    -0.02200
H599        H  0.66247789  0.11170990  0.86894503     0.05200
C600        C  0.70834696  0.13099464  0.92137035     0.20600
H601        H  0.58335358  0.23412485  0.92619164     0.10400
C602        C  0.75109210  0.15532039  0.91997037    -0.15600
C603        C  0.79485431  0.13609128  0.92868248     0.03300
C604        C  0.79660265  0.09102399  0.93839513    -0.10900
C605        C  0.75323300  0.06728334  0.94065027    -0.00900
C606        C  0.70946897  0.08691970  0.93235680    -0.06100
H607        H  0.75035671  0.18956366  0.91201739     0.06400
H608        H  0.75330658  0.03302711  0.94853412     0.09700
Br609      Br  0.66352414  0.20635003  0.96535212    -0.05800
Br610      Br  0.58726695  0.14092818  0.82802588    -0.02700
Br611      Br  0.84988265  0.17441073  0.92850833     0.00100
Br612      Br  0.65186912  0.05281541  0.93706778    -0.04300
C613        C  0.22476989  0.07471947  0.94580344    -0.11700
C614        C  0.23906535  0.07196186  0.91462041     0.03800
C615        C  0.28014169  0.09428513  0.90469852    -0.12200
C616        C  0.30764491  0.11948809  0.92522995     0.18700
C617        C  0.29416219  0.12164125  0.95641725    -0.09300
C618        C  0.25331430  0.09892826  0.96653052    -0.02200
H619        H  0.29034193  0.09261061  0.88063511     0.05200
C620        C  0.34674761  0.14712989  0.91271089     0.20600
H621        H  0.24291940  0.10147208  0.99050996     0.10400
C622        C  0.33446363  0.18215428  0.89295488    -0.15600
C623        C  0.36961192  0.20835171  0.87916653     0.03300
C624        C  0.41849021  0.20103737  0.88623334    -0.10900
C625        C  0.43078352  0.16505529  0.90546156    -0.00900
C626        C  0.39540461  0.13789388  0.91845370    -0.06100
H627        H  0.29711576  0.18822865  0.88745148     0.06400
H628        H  0.46812891  0.15799748  0.91033317     0.09700
Br629      Br  0.32835537  0.15769060  0.98546207    -0.05800
Br630      Br  0.20542656  0.03717672  0.88451333    -0.02700
Br631      Br  0.34776581  0.24857851  0.84793620     0.00100
Br632      Br  0.41521810  0.08731760  0.94232856    -0.04300
C633        C  0.01637293  0.07736493  0.84734178    -0.11700
C634        C  0.97823263  0.06666039  0.82739904     0.03800
C635        C  0.97506406  0.08707639  0.79843290    -0.12200
C636        C  0.00966336  0.11793525  0.78880676     0.18700
C637        C  0.04865754  0.12746865  0.80829103    -0.09300
C638        C  0.05198106  0.10688726  0.83714742    -0.02200
H639        H  0.94519123  0.07926459  0.78347716     0.05200
C640        C  0.00280222  0.14209503  0.75939057     0.20600
H641        H  0.08133171  0.11564381  0.85228490     0.10400
C642        C  0.96677026  0.17460693  0.75748410    -0.15600
C643        C  0.96099840  0.20033803  0.73084207     0.03300
C644        C  0.99267250  0.19450030  0.70571317    -0.10900
C645        C  0.02628174  0.15954198  0.70685730    -0.00900
C646        C  0.03161900  0.13353700  0.73344400    -0.06100
H647        H  0.94312636  0.18012135  0.77692813     0.06400
H648        H  0.04995012  0.15369038  0.68747597     0.09700
Br649      Br  0.09632278  0.17076073  0.79749876    -0.05800
Br650      Br  0.93061168  0.02332226  0.83817546    -0.02700
Br651      Br  0.90670819  0.23974435  0.72940156     0.00100
Br652      Br  0.07872018  0.08686789  0.73341663    -0.04300
C653        C  0.78977542  0.90774949  0.04866718    -0.11700
C654        C  0.75531550  0.88578424  0.03035303     0.03800
C655        C  0.71695842  0.86376139  0.04452142    -0.12200
C656        C  0.71190153  0.86360318  0.07669180     0.18700
C657        C  0.74628059  0.88537172  0.09490165    -0.09300
C658        C  0.78467250  0.90693627  0.08087969    -0.02200
H659        H  0.69106088  0.84638247  0.03039830     0.05200
C660        C  0.67121715  0.83990575  0.09099182     0.20600
H661        H  0.81039518  0.92382941  0.09540883     0.10400
C662        C  0.68045455  0.80448171  0.11113302    -0.15600
C663        C  0.64312921  0.78231115  0.12605651     0.03300
C664        C  0.59493263  0.79354371  0.11947836    -0.10900
C665        C  0.58623422  0.83065026  0.10052178    -0.00900
C666        C  0.62358114  0.85342794  0.08603691    -0.06100
H667        H  0.71715345  0.79482978  0.11592653     0.06400
H668        H  0.55024360  0.84246671  0.09701526     0.09700
Br669      Br  0.74181527  0.88825675  0.13901205    -0.05800
Br670      Br  0.75957909  0.88243097  0.98627802    -0.02700
Br671      Br  0.66147920  0.74083558  0.15722160     0.00100
Br672      Br  0.60765014  0.90381573  0.06073429    -0.04300
C673        C  0.42407707  0.80096029  0.11901129    -0.11700
C674        C  0.42388594  0.82252011  0.09014654     0.03800
C675        C  0.38244945  0.84437223  0.08001868    -0.12200
C676        C  0.34060109  0.84448725  0.09792608     0.18700
C677        C  0.34051511  0.82231471  0.12652267    -0.09300
C678        C  0.38188387  0.80060147  0.13666382    -0.02200
H679        H  0.38222283  0.85987000  0.05746353     0.05200
C680        C  0.29648218  0.86475017  0.08522707     0.20600
H681        H  0.38117214  0.78299926  0.15848221     0.10400
C682        C  0.25739580  0.83717979  0.07852105    -0.15600
C683        C  0.21503708  0.85481724  0.06637557     0.03300
C684        C  0.21147404  0.90093144  0.06029327    -0.10900
C685        C  0.25121098  0.92829569  0.06618578    -0.00900
C686        C  0.29337368  0.91064262  0.07873078    -0.06100
H687        H  0.25995439  0.80164291  0.08270323     0.06400
H688        H  0.24899141  0.96380874  0.06189751     0.09700
Br689      Br  0.28505583  0.82078035  0.15267535    -0.05800
Br690      Br  0.47589223  0.81805972  0.06158438    -0.02700
Br691      Br  0.16438724  0.81380065  0.05722928     0.00100
Br692      Br  0.34479223  0.95080487  0.08796618    -0.04300
C693        C  0.99491280  0.80887158  0.29469888    -0.11700
C694        C  0.03090264  0.83940678  0.28619126     0.03800
C695        C  0.02830511  0.86128126  0.25767272    -0.12200
C696        C  0.99017055  0.85332774  0.23739811     0.18700
C697        C  0.95319019  0.82443124  0.24645535    -0.09300
C698        C  0.95498148  0.80389042  0.27530037    -0.02200
H699        H  0.05685382  0.88363477  0.25087632     0.05200
C700        C  0.99133072  0.87264199  0.20605821     0.20600
H701        H  0.92571413  0.78252699  0.28215008     0.10400
C702        C  0.02166396  0.85338731  0.18409062    -0.15600
C703        C  0.02227530  0.86873531  0.15366329     0.03300
C704        C  0.99258321  0.90492357  0.14482670    -0.10900
C705        C  0.96234027  0.92429173  0.16708112    -0.00900
C706        C  0.96160005  0.90848381  0.19746752    -0.06100
H707        H  0.04419226  0.82544966  0.19053604     0.06400
H708        H  0.93923009  0.95193170  0.16086236     0.09700
Br709      Br  0.90181834  0.80885234  0.21919098    -0.05800
Br710      Br  0.08524869  0.85137888  0.31161077    -0.02700
Br711      Br  0.06154834  0.83601298  0.12512788     0.00100
Br712      Br  0.91978687  0.93687173  0.22656530    -0.04300
loop_ 
_geom_bond_atom_site_label_1 
_geom_bond_atom_site_label_2 
_geom_bond_distance 
_geom_bond_site_symmetry_2 
_ccdc_geom_bond_type 
O1           Mg3   2.135   1_655  S
O1           Mg9   2.153       .  S
O1           C36   1.237       .  S
C2           O15   1.236       .  S
C2           O39   1.270   1_554  A
C2           H41   1.081       .  S
Mg3          O32   2.157       .  S
Mg3          O47   2.300       .  S
Mg3          O43   2.249       .  S
Mg3          O14   2.293   1_554  S
O4          Mg46   2.146   1_565  S
O4          Mg29   2.139       .  S
O4           C25   1.237       .  S
O5           C36   1.271   1_556  A
O5          Mg29   2.300       .  S
C6            O8   1.272       .  A
C6           O20   1.276       .  A
C6          C613   1.480       .  S
O7           C35   1.269       .  A
O7           Mg9   2.294   1_445  S
O8          Mg40   2.261   1_556  S
Mg9          O15   2.140   1_565  S
Mg9          O23   2.273       .  S
Mg9          O11   2.275       .  S
C10          O48   1.273       .  A
C10          O16   1.276   1_455  A
C10         C633   1.478       .  S
O11          C18   1.273       .  A
H12          C25   1.081       .  S
C13          O27   1.236       .  S
C13          O28   1.270   1_556  A
C13          H38   1.081       .  S
O14          C37   1.269       .  A
O15         Mg29   2.158   1_544  S
O16         Mg46   2.311       .  S
C17          O30   1.274       .  A
C17          O22   1.277       .  A
C17         C604   1.491       .  S
C18          O45   1.272       .  A
C18         C653   1.480       .  S
Mg19         O26   2.142   1_545  S
Mg19         O27   2.149       .  S
Mg19         O20   2.306       .  S
Mg19         O21   2.300   1_545  S
Mg19         O48   2.272       .  S
O21          C25   1.271   1_455  A
O22         Mg29   2.316   1_545  S
O23          C42   1.272       .  A
O24          C44   1.276       .  A
O24         Mg40   2.310   1_565  S
O26         Mg40   2.159   1_566  S
O26          C37   1.235       .  S
O27         Mg46   2.147   1_455  S
O28         Mg40   2.298       .  S
Mg29         O45   2.271   1_556  S
O30         Mg46   2.278       .  S
H31          C36   1.081       .  S
O32         Mg40   2.138   1_565  S
O32          C35   1.236   1_565  S
H33          C35   1.081       .  S
H34          C37   1.081       .  S
O39         Mg46   2.297       .  S
C42          O47   1.273   1_655  A
C42         C704   1.486       .  S
O43          C44   1.271       .  A
C44         C684   1.478       .  S
C49          H50   1.111       .  S
C49          C55   1.539       .  S
C49          C54   1.539   1_655  S
C49          C53   1.538       .  S
C51          H52   1.110   1_655  S
C51          C57   1.542   1_655  S
C51          C56   1.544       .  S
C51          C58   1.539       .  S
C53          C56   1.378       .  D
C53         C644   1.493       .  S
C54          C57   1.379       .  D
C54         C553   1.486       .  S
C55          C58   1.375       .  D
C55         C544   1.492       .  S
C56         C573   1.487   1_655  S
C57         C493   1.502       .  S
C58         C513   1.489       .  S
O59         Mg61   2.140   1_455  S
O59         Mg67   2.158       .  S
O59          C94   1.236       .  S
C60          O73   1.236       .  S
C60          O97   1.270       .  A
C60          H99   1.081       .  S
Mg61         O90   2.159       .  S
Mg61        O105   2.305       .  S
Mg61        O101   2.268       .  S
Mg61         O72   2.298   1_556  S
O62        Mg104   2.152       .  S
O62         Mg87   2.140       .  S
O62          C83   1.237       .  S
O63          C94   1.270   1_554  A
O63         Mg87   2.297       .  S
C64          O66   1.273       .  A
C64          O78   1.278       .  A
C64         C453   1.479       .  S
O65          C93   1.270   1_455  A
O65         Mg67   2.297       .  S
O66         Mg98   2.261   1_554  S
Mg67         O73   2.145       .  S
Mg67         O81   2.278       .  S
Mg67         O69   2.310       .  S
C68         O106   1.275       .  A
C68          O74   1.274   1_655  A
C68         C484   1.481       .  S
O69          C76   1.277       .  A
H70          C83   1.081       .  S
C71          O85   1.236       .  S
C71          O86   1.270   1_554  A
C71          H96   1.081       .  S
O72          C95   1.270       .  A
O73         Mg87   2.154   1_556  S
O74        Mg104   2.291       .  S
C75          O88   1.270       .  A
C75          O80   1.278       .  A
C75         C433   1.491       .  S
C76         O103   1.272       .  A
C76         C393   1.484       .  S
Mg77         O84   2.156       .  S
Mg77         O85   2.157       .  S
Mg77         O78   2.315       .  S
Mg77         O79   2.296   1_655  S
Mg77        O106   2.291       .  S
O79          C83   1.270       .  A
O80         Mg87   2.316       .  S
O81         C100   1.273       .  A
O82         C102   1.277       .  A
O82         Mg98   2.318       .  S
O84         Mg98   2.159   1_554  S
O84          C95   1.236       .  S
O85        Mg104   2.137   1_655  S
O86         Mg98   2.296       .  S
Mg87        O103   2.266   1_554  S
O88        Mg104   2.260       .  S
H89          C94   1.081       .  S
O90         Mg98   2.141       .  S
O90          C93   1.237       .  S
H91          C93   1.081       .  S
H92          C95   1.081       .  S
O97        Mg104   2.295   1_556  S
C100        O105   1.276   1_455  A
C100        C584   1.485       .  S
O101        C102   1.272       .  A
C102        C424   1.475       .  S
C107        H108   1.104   1_655  S
C107        C113   1.539       .  S
C107        C112   1.556   1_655  S
C107        C111   1.533       .  S
C109        H110   1.107       .  S
C109        C115   1.534   1_655  S
C109        C114   1.550       .  S
C109        C116   1.549       .  S
C111        C114   1.370       .  D
C111        C693   1.494       .  S
C112        C115   1.381       .  D
C112        C384   1.489       .  S
C113        C116   1.386       .  D
C113        C353   1.511       .  S
C114        C473   1.492       .  S
C115        C313   1.509       .  S
C116        C333   1.496       .  S
O117       Mg119   2.136       .  S
O117       Mg125   2.152       .  S
O117        C152   1.236       .  S
C118        O131   1.236       .  S
C118        O155   1.270       .  A
C118        H157   1.081       .  S
Mg119       O148   2.157       .  S
Mg119       O163   2.309       .  S
Mg119       O159   2.260       .  S
Mg119       O130   2.291       .  S
O120       Mg162   2.153       .  S
O120       Mg145   2.155   1_545  S
O120        C141   1.237   1_545  S
O121        C152   1.269       .  A
O121       Mg145   2.294       .  S
C122        O124   1.271       .  A
C122        O136   1.275       .  A
C122        C564   1.467       .  S
O123        C151   1.269       .  A
O123       Mg125   2.292   1_545  S
O124       Mg156   2.261       .  S
Mg125       O131   2.137   1_565  S
Mg125       O139   2.241       .  S
Mg125       O127   2.278       .  S
C126        O164   1.270       .  A
C126        O132   1.278       .  A
C126        C304   1.484       .  S
O127        C134   1.270       .  A
H128        C141   1.081       .  S
C129        O143   1.237       .  S
C129        O144   1.272       .  A
C129        H154   1.081       .  S
O130        C153   1.268       .  A
O131       Mg145   2.159   1_545  S
O132       Mg162   2.331       .  S
C133        O146   1.272       .  A
C133        O138   1.278       .  A
C133        C533   1.484       .  S
C134        O161   1.276       .  A
C134        C364   1.484       .  S
Mg135       O142   2.136   1_545  S
Mg135       O143   2.147       .  S
Mg135       O136   2.309       .  S
Mg135       O137   2.304   1_545  S
Mg135       O164   2.253       .  S
O137        C141   1.272       .  A
O138       Mg145   2.316   1_545  S
O139        C158   1.270       .  A
O140        C160   1.277       .  A
O140       Mg156   2.317   1_565  S
O142       Mg156   2.154   1_565  S
O142        C153   1.235       .  S
O143       Mg162   2.146       .  S
O144       Mg156   2.304       .  S
Mg145       O161   2.298       .  S
O146       Mg162   2.259       .  S
H147        C152   1.081       .  S
O148       Mg156   2.135   1_565  S
O148        C151   1.236   1_565  S
H149        C151   1.081       .  S
H150        C153   1.081       .  S
O155       Mg162   2.299       .  S
C158        O163   1.275       .  A
C158        C273   1.483       .  S
O159        C160   1.273       .  A
C160        C373   1.479       .  S
C165        H166   1.098       .  S
C165        C171   1.534       .  S
C165        C170   1.551       .  S
C165        C169   1.556       .  S
C167        H168   1.108       .  S
C167        C173   1.541       .  S
C167        C172   1.530       .  S
C167        C174   1.544       .  S
C169        C172   1.378       .  D
C169        C264   1.494       .  S
C170        C173   1.393       .  D
C170        C464   1.516       .  S
C171        C174   1.369       .  D
C171        C444   1.499       .  S
C172        C284   1.500       .  S
C173        C664   1.501       .  S
C174        C673   1.485       .  S
O175       Mg177   2.134       .  S
O175       Mg183   2.150       .  S
O175        C210   1.235       .  S
C176        O189   1.236       .  S
C176        O213   1.270       .  A
C176        H215   1.081       .  S
Mg177       O206   2.152       .  S
Mg177       O221   2.288       .  S
Mg177       O217   2.271       .  S
Mg177       O188   2.297       .  S
O178       Mg220   2.151       .  S
O178       Mg203   2.149       .  S
O178        C199   1.236       .  S
O179        C210   1.269       .  A
O179       Mg203   2.293       .  S
C180        O182   1.268       .  A
C180        O194   1.278       .  A
C180        C344   1.480       .  S
O181        C209   1.271       .  A
O181       Mg183   2.297       .  S
O182       Mg214   2.236       .  S
Mg183       O189   2.142       .  S
Mg183       O197   2.274       .  S
Mg183       O185   2.311       .  S
C184        O222   1.275       .  A
C184        O190   1.273       .  A
C184        C253   1.477       .  S
O185        C192   1.276       .  A
H186        C199   1.081       .  S
C187        O201   1.236       .  S
C187        O202   1.271       .  A
C187        H212   1.081       .  S
O188        C211   1.270       .  A
O189       Mg203   2.156       .  S
O190       Mg220   2.302       .  S
C191        O204   1.271       .  A
C191        O196   1.277       .  A
C191        C324   1.484       .  S
C192        O219   1.275       .  A
C192        C504   1.482       .  S
Mg193       O200   2.158       .  S
Mg193       O201   2.147       .  S
Mg193       O194   2.311       .  S
Mg193       O195   2.305       .  S
Mg193       O222   2.293       .  S
O195        C199   1.271       .  A
O196       Mg203   2.316       .  S
O197        C216   1.273       .  A
O198        C218   1.277       .  A
O198       Mg214   2.332       .  S
O200       Mg214   2.168       .  S
O200        C211   1.236       .  S
O201       Mg220   2.151       .  S
O202       Mg214   2.306       .  S
Mg203       O219   2.278       .  S
O204       Mg220   2.258       .  S
H205        C210   1.081       .  S
O206       Mg214   2.129       .  S
O206        C209   1.238       .  S
H207        C209   1.081       .  S
H208        C211   1.081       .  S
O213       Mg220   2.293       .  S
C216        O221   1.274       .  A
C216        C233   1.483       .  S
O217        C218   1.272       .  A
C218        C524   1.485       .  S
C223        H224   1.111       .  S
C223        C229   1.540       .  S
C223        C228   1.538       .  S
C223        C227   1.542       .  S
C225        H226   1.109       .  S
C225        C231   1.541       .  S
C225        C230   1.540       .  S
C225        C232   1.540       .  S
C227        C230   1.380       .  D
C227        C244   1.490       .  S
C228        C231   1.379       .  D
C228        C413   1.494       .  S
C229        C232   1.378       .  D
C229        C404   1.493       .  S
C230        C293   1.498       .  S
C231        C593   1.499       .  S
C232        C624   1.489       .  S
C233        C234   1.414       .  A
C233        C238   1.406       .  A
C234        C235   1.401       .  A
C234       Br250   1.920       .  S
C235        H239   1.084       .  S
C235        C236   1.402       .  A
C236        C240   1.478       .  S
C236        C237   1.406       .  A
C237        C238   1.396       .  A
C237       Br249   1.915       .  S
C238        H241   1.084       .  S
C240        C242   1.399       .  A
C240        C246   1.407       .  A
C242        H247   1.084       .  S
C242        C243   1.396       .  A
C243        C244   1.413       .  A
C243       Br251   1.913       .  S
C244        C245   1.406       .  A
C245        H248   1.084       .  S
C245        C246   1.402       .  A
C246       Br252   1.917       .  S
C253        C254   1.409       .  A
C253        C258   1.405       .  A
C254        C255   1.398       .  A
C254       Br270   1.919       .  S
C255        H259   1.084       .  S
C255        C256   1.403       .  A
C256        C260   1.479       .  S
C256        C257   1.408       .  A
C257        C258   1.403       .  A
C257       Br269   1.918       .  S
C258        H261   1.083       .  S
C260        C262   1.397       .  A
C260        C266   1.408       .  A
C262        H267   1.084       .  S
C262        C263   1.394       .  A
C263        C264   1.411       .  A
C263       Br271   1.905       .  S
C264        C265   1.407       .  A
C265        H268   1.084       .  S
C265        C266   1.403       .  A
C266       Br272   1.916       .  S
C273        C274   1.417       .  A
C273        C278   1.409       .  A
C274        C275   1.398       .  A
C274       Br290   1.923       .  S
C275        H279   1.084       .  S
C275        C276   1.399       .  A
C276        C280   1.471       .  S
C276        C277   1.403       .  A
C277        C278   1.398       .  A
C277       Br289   1.918       .  S
C278        H281   1.083       .  S
C280        C282   1.395       .  A
C280        C286   1.403       .  A
C282        H287   1.084       .  S
C282        C283   1.397       .  A
C283        C284   1.418       .  A
C283       Br291   1.909       .  S
C284        C285   1.408       .  A
C285        H288   1.078       .  S
C285        C286   1.397       .  A
C286       Br292   1.918       .  S
C293        C294   1.416       .  A
C293        C298   1.407       .  A
C294        C295   1.400       .  A
C294       Br310   1.915       .  S
C295        H299   1.084       .  S
C295        C296   1.402       .  A
C296        C300   1.485       .  S
C296        C297   1.409       .  A
C297        C298   1.399       .  A
C297       Br309   1.917       .  S
C298        H301   1.083       .  S
C300        C302   1.401       .  A
C300        C306   1.410       .  A
C302        H307   1.084       .  S
C302        C303   1.397       .  A
C303        C304   1.415       .  A
C303       Br311   1.923       .  S
C304        C305   1.406       .  A
C305        H308   1.083       .  S
C305        C306   1.404       .  A
C306       Br312   1.920       .  S
C313        C314   1.418       .  A
C313        C318   1.405       .  A
C314        C315   1.404       .  A
C314       Br330   1.911       .  S
C315        H319   1.083       .  S
C315        C316   1.402       .  A
C316        C320   1.482       .  S
C316        C317   1.404       .  A
C317        C318   1.395       .  A
C317       Br329   1.920       .  S
C318        H321   1.070       .  S
C320        C322   1.403       .  A
C320        C326   1.408       .  A
C322        H327   1.084       .  S
C322        C323   1.398       .  A
C323        C324   1.414       .  A
C323       Br331   1.921       .  S
C324        C325   1.407       .  A
C325        H328   1.083       .  S
C325        C326   1.401       .  A
C326       Br332   1.919       .  S
C333        C334   1.413       .  A
C333        C338   1.410       .  A
C334        C335   1.394       .  A
C334       Br350   1.902       .  S
C335        H339   1.084       .  S
C335        C336   1.396       .  A
C336        C340   1.474       .  S
C336        C337   1.404       .  A
C337        C338   1.401       .  A
C337       Br349   1.916       .  S
C338        H341   1.083       .  S
C340        C342   1.399       .  A
C340        C346   1.406       .  A
C342        H347   1.084       .  S
C342        C343   1.400       .  A
C343        C344   1.419       .  A
C343       Br351   1.923       .  S
C344        C345   1.403       .  A
C345        H348   1.084       .  S
C345        C346   1.393       .  A
C346       Br352   1.912       .  S
C353        C354   1.421       .  A
C353        C358   1.413       .  A
C354        C355   1.399       .  A
C354       Br370   1.912       .  S
C355        H359   1.084       .  S
C355        C356   1.398       .  A
C356        C360   1.485       .  S
C356        C357   1.405       .  A
C357        C358   1.402       .  A
C357       Br369   1.916       .  S
C358        H361   1.083       .  S
C360        C362   1.402       .  A
C360        C366   1.409       .  A
C362        H367   1.083       .  S
C362        C363   1.403       .  A
C363        C364   1.418       .  A
C363       Br371   1.922       .  S
C364        C365   1.403       .  A
C365        H368   1.083       .  S
C365        C366   1.398       .  A
C366       Br372   1.919       .  S
C373        C374   1.412       .  A
C373        C378   1.404       .  A
C374        C375   1.401       .  A
C374       Br390   1.920       .  S
C375        H379   1.084       .  S
C375        C376   1.403       .  A
C376        C380   1.483       .  S
C376        C377   1.409       .  A
C377        C378   1.400       .  A
C377       Br389   1.920       .  S
C378        H381   1.084       .  S
C380        C382   1.403       .  A
C380        C386   1.409       .  A
C382        H387   1.083       .  S
C382        C383   1.402       .  A
C383        C384   1.414       .  A
C383       Br391   1.923       .  S
C384        C385   1.401       .  A
C385        H388   1.082       .  S
C385        C386   1.397       .  A
C386       Br392   1.919       .  S
C393        C394   1.416       .  A
C393        C398   1.406       .  A
C394        C395   1.401       .  A
C394       Br410   1.921       .  S
C395        H399   1.083       .  S
C395        C396   1.400       .  A
C396        C400   1.478       .  S
C396        C397   1.406       .  A
C397        C398   1.398       .  A
C397       Br409   1.918       .  S
C398        H401   1.084       .  S
C400        C402   1.400       .  A
C400        C406   1.407       .  A
C402        H407   1.083       .  S
C402        C403   1.400       .  A
C403        C404   1.415       .  A
C403       Br411   1.920       .  S
C404        C405   1.405       .  A
C405        H408   1.083       .  S
C405        C406   1.400       .  A
C406       Br412   1.918       .  S
C413        C414   1.412       .  A
C413        C418   1.407       .  A
C414        C415   1.400       .  A
C414       Br430   1.913       .  S
C415        H419   1.084       .  S
C415        C416   1.401       .  A
C416        C420   1.481       .  S
C416        C417   1.406       .  A
C417        C418   1.400       .  A
C417       Br429   1.917       .  S
C418        H421   1.083       .  S
C420        C422   1.406       .  A
C420        C426   1.407       .  A
C422        H427   1.084       .  S
C422        C423   1.404       .  A
C423        C424   1.409       .  A
C423       Br431   1.917       .  S
C424        C425   1.403       .  A
C425        H428   1.084       .  S
C425        C426   1.398       .  A
C426       Br432   1.918       .  S
C433        C434   1.420       .  A
C433        C438   1.409       .  A
C434        C435   1.402       .  A
C434       Br450   1.922       .  S
C435        H439   1.084       .  S
C435        C436   1.400       .  A
C436        C440   1.477       .  S
C436        C437   1.403       .  A
C437        C438   1.398       .  A
C437       Br449   1.918       .  S
C438        H441   1.083       .  S
C440        C442   1.399       .  A
C440        C446   1.403       .  A
C442        H447   1.084       .  S
C442        C443   1.399       .  A
C443        C444   1.413       .  A
C443       Br451   1.906       .  S
C444        C445   1.408       .  A
C445        H448   1.080       .  S
C445        C446   1.399       .  A
C446       Br452   1.917       .  S
C453        C454   1.413       .  A
C453        C458   1.404       .  A
C454        C455   1.399       .  A
C454       Br470   1.921       .  S
C455        H459   1.084       .  S
C455        C456   1.402       .  A
C456        C460   1.479       .  S
C456        C457   1.409       .  A
C457        C458   1.399       .  A
C457       Br469   1.918       .  S
C458        H461   1.084       .  S
C460        C462   1.397       .  A
C460        C466   1.403       .  A
C462        H467   1.084       .  S
C462        C463   1.400       .  A
C463        C464   1.426       .  A
C463       Br471   1.917       .  S
C464        C465   1.414       .  A
C465        H468   1.082       .  S
C465        C466   1.398       .  A
C466       Br472   1.919       .  S
C473        C474   1.411   1_655  A
C473        C478   1.400       .  A
C474        C475   1.402       .  A
C474       Br490   1.919       .  S
C475        H479   1.083       .  S
C475        C476   1.405       .  A
C476        C480   1.486       .  S
C476        C477   1.408   1_455  A
C477        C478   1.397       .  A
C477       Br489   1.920       .  S
C478        H481   1.077       .  S
C480        C482   1.406   1_455  A
C480        C486   1.409       .  A
C482        H487   1.084       .  S
C482        C483   1.402       .  A
C483        C484   1.410       .  A
C483       Br491   1.918       .  S
C484        C485   1.405   1_655  A
C485        H488   1.084       .  S
C485        C486   1.399       .  A
C486       Br492   1.919       .  S
C493        C494   1.416       .  A
C493        C498   1.410       .  A
C494        C495   1.398       .  A
C494       Br510   1.909       .  S
C495        H499   1.084       .  S
C495        C496   1.397       .  A
C496        C500   1.478       .  S
C496        C497   1.405       .  A
C497        C498   1.401       .  A
C497       Br509   1.917       .  S
C498        H501   1.083       .  S
C500        C502   1.402       .  A
C500        C506   1.406       .  A
C502        H507   1.084       .  S
C502        C503   1.402       .  A
C503        C504   1.415       .  A
C503       Br511   1.921       .  S
C504        C505   1.405       .  A
C505        H508   1.083       .  S
C505        C506   1.399       .  A
C506       Br512   1.918       .  S
C513        C514   1.410       .  A
C513        C518   1.403       .  A
C514        C515   1.405       .  A
C514       Br530   1.918       .  S
C515        H519   1.083       .  S
C515        C516   1.405       .  A
C516        C520   1.487       .  S
C516        C517   1.409       .  A
C517        C518   1.401       .  A
C517       Br529   1.917       .  S
C518        H521   1.084       .  S
C520        C522   1.403       .  A
C520        C526   1.409       .  A
C522        H527   1.084       .  S
C522        C523   1.402       .  A
C523        C524   1.411       .  A
C523       Br531   1.919       .  S
C524        C525   1.407       .  A
C525        H528   1.083       .  S
C525        C526   1.406       .  A
C526       Br532   1.917       .  S
C533        C534   1.417       .  A
C533        C538   1.408       .  A
C534        C535   1.399       .  A
C534       Br550   1.922       .  S
C535        H539   1.084       .  S
C535        C536   1.399       .  A
C536        C540   1.473       .  S
C536        C537   1.404       .  A
C537        C538   1.398       .  A
C537       Br549   1.918       .  S
C538        H541   1.083       .  S
C540        C542   1.398       .  A
C540        C546   1.404       .  A
C542        H547   1.084       .  S
C542        C543   1.396       .  A
C543        C544   1.413       .  A
C543       Br551   1.910       .  S
C544        C545   1.407       .  A
C545        H548   1.081       .  S
C545        C546   1.399       .  A
C546       Br552   1.916       .  S
C553        C554   1.410       .  A
C553        C558   1.404       .  A
C554        C555   1.402       .  A
C554       Br570   1.916       .  S
C555        H559   1.083       .  S
C555        C556   1.403       .  A
C556        C560   1.477       .  S
C556        C557   1.406       .  A
C557        C558   1.396       .  A
C557       Br569   1.919       .  S
C558        H561   1.083       .  S
C560        C562   1.403       .  A
C560        C566   1.409       .  A
C562        H567   1.084       .  S
C562        C563   1.398       .  A
C563        C564   1.406       .  A
C563       Br571   1.918       .  S
C564        C565   1.402       .  A
C565        H568   1.083       .  S
C565        C566   1.401       .  A
C566       Br572   1.918       .  S
C573        C574   1.414       .  A
C573        C578   1.404   1_455  A
C574        C575   1.397       .  A
C574       Br590   1.920       .  S
C575        H579   1.084       .  S
C575        C576   1.400       .  A
C576        C580   1.477       .  S
C576        C577   1.407   1_455  A
C577        C578   1.400       .  A
C577       Br589   1.917       .  S
C578        H581   1.084       .  S
C580        C582   1.401       .  A
C580        C586   1.405   1_455  A
C582        H587   1.083       .  S
C582        C583   1.402       .  A
C583        C584   1.415       .  A
C583       Br591   1.919       .  S
C584        C585   1.407   1_455  A
C585        H588   1.083       .  S
C585        C586   1.398       .  A
C586       Br592   1.920       .  S
C593        C594   1.415       .  A
C593        C598   1.409       .  A
C594        C595   1.400       .  A
C594       Br610   1.914       .  S
C595        H599   1.084       .  S
C595        C596   1.401       .  A
C596        C600   1.482       .  S
C596        C597   1.406       .  A
C597        C598   1.400       .  A
C597       Br609   1.917       .  S
C598        H601   1.083       .  S
C600        C602   1.401       .  A
C600        C606   1.406       .  A
C602        H607   1.084       .  S
C602        C603   1.401       .  A
C603        C604   1.417       .  A
C603       Br611   1.921       .  S
C604        C605   1.409       .  A
C605        H608   1.083       .  S
C605        C606   1.401       .  A
C606       Br612   1.918       .  S
C613        C614   1.414       .  A
C613        C618   1.407       .  A
C614        C615   1.397       .  A
C614       Br630   1.922       .  S
C615        H619   1.084       .  S
C615        C616   1.401       .  A
C616        C620   1.475       .  S
C616        C617   1.407       .  A
C617        C618   1.400       .  A
C617       Br629   1.919       .  S
C618        H621   1.083       .  S
C620        C622   1.398       .  A
C620        C626   1.407       .  A
C622        H627   1.084       .  S
C622        C623   1.393       .  A
C623        C624   1.414       .  A
C623       Br631   1.913       .  S
C624        C625   1.406       .  A
C625        H628   1.084       .  S
C625        C626   1.400       .  A
C626       Br632   1.917       .  S
C633        C634   1.411   1_455  A
C633        C638   1.404       .  A
C634        C635   1.401       .  A
C634       Br650   1.919       .  S
C635        H639   1.083       .  S
C635        C636   1.403   1_655  A
C636        C640   1.480       .  S
C636        C637   1.409       .  A
C637        C638   1.399       .  A
C637       Br649   1.919       .  S
C638        H641   1.084       .  S
C640        C642   1.401   1_455  A
C640        C646   1.407       .  A
C642        H647   1.084       .  S
C642        C643   1.399       .  A
C643        C644   1.414       .  A
C643       Br651   1.920       .  S
C644        C645   1.406   1_655  A
C645        H648   1.084       .  S
C645        C646   1.400       .  A
C646       Br652   1.918       .  S
C653        C654   1.414       .  A
C653        C658   1.406       .  A
C654        C655   1.401       .  A
C654       Br670   1.920   1_554  S
C655        H659   1.084       .  S
C655        C656   1.404       .  A
C656        C660   1.477       .  S
C656        C657   1.407       .  A
C657        C658   1.392       .  A
C657       Br669   1.921       .  S
C658        H661   1.084       .  S
C660        C662   1.399       .  A
C660        C666   1.405       .  A
C662        H667   1.084       .  S
C662        C663   1.396       .  A
C663        C664   1.415       .  A
C663       Br671   1.907       .  S
C664        C665   1.405       .  A
C665        H668   1.075       .  S
C665        C666   1.397       .  A
C666       Br672   1.919       .  S
C673        C674   1.410       .  A
C673        C678   1.404       .  A
C674        C675   1.398       .  A
C674       Br690   1.912       .  S
C675        H679   1.084       .  S
C675        C676   1.402       .  A
C676        C680   1.478       .  S
C676        C677   1.408       .  A
C677        C678   1.395       .  A
C677       Br689   1.919       .  S
C678        H681   1.084       .  S
C680        C682   1.402       .  A
C680        C686   1.408       .  A
C682        H687   1.084       .  S
C682        C683   1.397       .  A
C683        C684   1.412       .  A
C683       Br691   1.919       .  S
C684        C685   1.406       .  A
C685        H688   1.083       .  S
C685        C686   1.399       .  A
C686       Br692   1.920       .  S
C693        C694   1.410   1_655  A
C693        C698   1.406       .  A
C694        C695   1.402       .  A
C694       Br710   1.911       .  S
C695        H699   1.083       .  S
C695        C696   1.403   1_455  A
C696        C700   1.479       .  S
C696        C697   1.405       .  A
C697        C698   1.396       .  A
C697       Br709   1.919       .  S
C698        H701   1.081       .  S
C700        C702   1.399   1_655  A
C700        C706   1.407       .  A
C702        H707   1.083       .  S
C702        C703   1.399       .  A
C703        C704   1.417   1_455  A
C703       Br711   1.923       .  S
C704        C705   1.408       .  A
C705        H708   1.083       .  S
C705        C706   1.402       .  A
C706       Br712   1.918       .  S
