geometry optimzed in LAMMPS
_audit_creation_date              2020-11-30 
_audit_creation_method            'lammps2cif' 
_symmetry_space_group_name_H-M    'P1' 
_symmetry_Int_Tables_number       1 
_symmetry_cell_setting            triclinic 
loop_ 
_symmetry_equiv_pos_as_xyz 
  x,y,z 
_cell_length_a                    34.94340524 
_cell_length_b                    34.26844523336133 
_cell_length_c                    42.6712340934664 
_cell_angle_alpha                 89.67057165658642 
_cell_angle_beta                  89.99165118423117 
_cell_angle_gamma                 121.27857778854707 
loop_ 
_atom_site_label 
_atom_site_type_symbol 
_atom_site_fract_x 
_atom_site_fract_y 
_atom_site_fract_z 
_atom_site_charge 
C1          C  0.46090258  0.09418370  0.32105292     0.41900
N2          N  0.49624409  0.08232438  0.28405433     0.00800
C3          C  0.40255909  0.89464679  0.18533358    -0.07100
H4          H  0.40188312  0.85844836  0.30557983     0.06300
C5          C  0.57215921  0.95137219  0.30283651    -0.07400
Co6        Co  0.43235920  0.00153130  0.24578815     0.74200
N7          N  0.41965593  0.91788578  0.27783569    -0.26600
Co8        Co  0.46513988  0.92231177  0.24428044     0.74100
C9          C  0.53747373  0.91245146  0.31997839     0.42000
N10         N  0.59800696  0.05609918  0.28299564     0.00400
N11         N  0.50837985  0.92432428  0.27944655     0.00500
N12         N  0.38324329  0.94797849  0.18730717    -0.47500
H13         H  0.39382062  0.03081986  0.30531969     0.06300
N14         N  0.40691246  0.94796978  0.27815351     0.00800
N15         N  0.51099870  0.92981159  0.20970162     0.00500
C16         C  0.54016377  0.92485610  0.16682731     0.42100
N17         N  0.58541040  0.08623570  0.28532926    -0.26100
C18         C  0.43985404  0.06336851  0.18965936    -0.07000
N19         N  0.50164532  0.11021343  0.30735068    -0.47200
N20         N  0.50180000  0.90570018  0.18368658    -0.47400
C21         C  0.47503384  0.10600542  0.17585945     0.41900
N22         N  0.41123753  0.95355816  0.21008518     0.00800
N23         N  0.58992377  0.09496506  0.21601346    -0.26100
N24         N  0.45419427  0.04894194  0.28145540    -0.26600
N25         N  0.60205455  0.06441550  0.21495467     0.00400
H26         H  0.60860643  0.15497362  0.18764714     0.06300
H27         H  0.60892219  0.98708595  0.17899614     0.06300
N28         N  0.42298186  0.92271693  0.20963964    -0.26600
N29         N  0.55101647  0.95687805  0.27869938    -0.26300
N30         N  0.50184207  0.08919226  0.21525723     0.00800
C31         C  0.36852406  0.90076502  0.31507606     0.42200
C32         C  0.60379366  0.11040766  0.31156066    -0.07500
N33         N  0.55302193  0.96378290  0.21060881    -0.26300
H34         H  0.60698513  0.97322278  0.30849187     0.06300
N35         N  0.37664855  0.93914116  0.30006706    -0.47500
H36         H  0.59977576  0.13783175  0.31986358     0.06300
C37         C  0.63967949  0.11109487  0.17746150     0.42000
C38         C  0.42948802  0.05326281  0.30351036    -0.07000
Co39       Co  0.54401657  0.08961182  0.25041772     0.73800
N40         N  0.62423331  0.05818480  0.30610577    -0.47200
C41         C  0.37614281  0.91168795  0.17035044     0.42300
N42         N  0.51268140  0.12005217  0.19267617    -0.47200
Co43       Co  0.57673237  0.01018051  0.24664388     0.73900
C44         C  0.57422318  0.96315720  0.18473372    -0.07500
C45         C  0.39755736  0.88681545  0.30046748    -0.07100
N46         N  0.45957883  0.05550822  0.21373317    -0.26600
N47         N  0.49847555  0.89713422  0.30435441    -0.47400
H48         H  0.40540763  0.86565134  0.17936625     0.06300
C49         C  0.61156712  0.12574307  0.19280411    -0.07500
Cl50       Cl  0.50449566  0.00598390  0.24683605    -0.50500
C51         C  0.62931689  0.09125706  0.32547289     0.42000
H52         H  0.40531049  0.04195253  0.18276578     0.06300
N53         N  0.63154423  0.07282840  0.19250884    -0.47200
C54         C  0.08839740  0.63365551  0.32097880     0.41900
N55         N  0.07479485  0.58764076  0.28326698     0.00800
C56         C  0.89298471  0.48123382  0.18424831    -0.07100
H57         H  0.85374867  0.44828678  0.30381239     0.06300
C58         C  0.94566883  0.37692103  0.30721343    -0.07400
Co59       Co  0.99421691  0.56808927  0.24606542     0.74200
N60         N  0.91234589  0.49343613  0.27755251    -0.26600
Co61       Co  0.91849376  0.45172014  0.24455722     0.74100
C62         C  0.90471716  0.37068468  0.32078145     0.42000
N63         N  0.05155541  0.46001846  0.28640046     0.00400
N64         N  0.92000416  0.41153440  0.27987827     0.00500
N65         N  0.94131237  0.55764126  0.18465896    -0.47500
H66         H  0.02656467  0.63874734  0.30992464     0.06300
N67         N  0.94125810  0.53774566  0.27860340     0.00800
N68         N  0.92679808  0.41168641  0.21132205     0.00500
C69         C  0.92340090  0.37500373  0.16977055     0.42100
N70         N  0.08079994  0.50432316  0.28620814    -0.26100
C71         C  0.05527525  0.62621099  0.19094551    -0.07000
N72         N  0.10281090  0.60885312  0.30656537    -0.47200
N73         N  0.90379407  0.39460291  0.18507643    -0.47400
C74         C  0.09723814  0.63500647  0.17741741     0.41900
N75         N  0.94730187  0.53770537  0.20938443     0.00800
N76         N  0.08671931  0.50460760  0.21780732    -0.26100
N77         N  0.04202787  0.59620993  0.28185733    -0.26600
N78         N  0.05803688  0.46028481  0.21841812     0.00400
H79         H  0.14361406  0.54780283  0.18897013     0.06300
H80         H  0.98440644  0.37089526  0.18420818     0.06300
N81         N  0.91920967  0.49317487  0.20945886    -0.26600
N82         N  0.95280386  0.40325507  0.28204723    -0.26300
N83         N  0.07969239  0.58797913  0.21540407     0.00800
C84         C  0.89370539  0.52556985  0.31566468     0.42200
C85         C  0.10760908  0.51441082  0.31102902    -0.07500
N86         N  0.96017405  0.40434760  0.21388846    -0.26300
H87         H  0.96700897  0.36479238  0.31536127     0.06300
N88         N  0.93156743  0.55810156  0.30099329    -0.47500
H89         H  0.13535446  0.54808807  0.31661784     0.06300
C90         C  0.10280108  0.46944165  0.18049169     0.42000
C91         C  0.04776001  0.62512802  0.30506817    -0.07000
Co92       Co  0.08147986  0.54677219  0.25060822     0.73800
N93         N  0.05688376  0.43854424  0.31038022    -0.47200
C94         C  0.90824873  0.52364300  0.16742064     0.42300
N95         N  0.11071752  0.61046704  0.19368749    -0.47200
Co96       Co  0.00548633  0.43092353  0.25035187     0.73900
C97         C  0.96049558  0.38117331  0.18886806    -0.07500
C98         C  0.88120042  0.48246054  0.29983264    -0.07100
N99         N  0.04691406  0.59649898  0.21419450    -0.26600
N100        N  0.89033361  0.39265242  0.30273713    -0.47400
H101        H  0.86584689  0.44712871  0.17906045     0.06300
C102        C  0.11644605  0.51399945  0.19463255    -0.07500
Cl103      Cl  0.99999087  0.49952079  0.24799324    -0.50500
C104        C  0.09167137  0.47071579  0.32711717     0.42000
H105        H  0.03475334  0.64011385  0.18457255     0.06300
N106        N  0.06638790  0.43828982  0.19675401    -0.47200
C107        C  0.37783070  0.44274762  0.33620531     0.41900
N108        N  0.41707219  0.47560688  0.29498318     0.00800
C109        C  0.50720758  0.40507746  0.18410027    -0.07100
H110        H  0.56006733  0.39680677  0.29976459     0.06300
C111        C  0.62106460  0.55737447  0.31063926    -0.07400
Co112      Co  0.43296462  0.41328818  0.25643003     0.74200
N113        N  0.51098708  0.40905859  0.27914389    -0.26600
Co114      Co  0.54678148  0.45694701  0.24567528     0.74100
C115        C  0.62974487  0.52173467  0.32124604     0.42000
N116        N  0.54067331  0.58397316  0.28948971     0.00400
N117        N  0.59036197  0.49973110  0.27951441     0.00500
N118        N  0.43320323  0.37657368  0.19231364    -0.47500
H119        H  0.37379106  0.37507063  0.32482452     0.06300
N120        N  0.46829053  0.39305354  0.28475363     0.00800
N121        N  0.58334739  0.50561081  0.21241429     0.00500
C122        C  0.62232893  0.54025516  0.17223832     0.42100
N123        N  0.49735471  0.56823505  0.29053009    -0.26100
C124        C  0.36491210  0.40735299  0.20849208    -0.07000
N125        N  0.39865543  0.48248532  0.31989021    -0.47200
N126        N  0.60110884  0.49964828  0.18696335    -0.47400
C127        C  0.35200772  0.43816985  0.19528394     0.41900
N128        N  0.45721365  0.39794048  0.21724212     0.00800
N129        N  0.49154870  0.56829763  0.22173366    -0.26100
N130        N  0.41022743  0.43383920  0.29438778    -0.26600
N131        N  0.53536707  0.58614704  0.22115661     0.00400
H132        H  0.44606168  0.57052706  0.18889354     0.06300
H133        H  0.62949493  0.60824332  0.18661457     0.06300
N134        N  0.50053921  0.41539804  0.21284685    -0.26600
N135        N  0.59668583  0.54073411  0.28428496    -0.26300
N136        N  0.40698994  0.47520448  0.22696925     0.00800
C137        C  0.48796591  0.35978993  0.31769612     0.42200
C138        C  0.48867190  0.58725202  0.31449009    -0.07500
N139        N  0.59225681  0.54768773  0.21545472    -0.26300
H140        H  0.63089494  0.58980532  0.32130441     0.06300
N141        N  0.45294532  0.36339045  0.30830914    -0.47500
H142        H  0.45603533  0.58115164  0.32089400     0.06300
C143        C  0.52231793  0.61005307  0.17771487     0.42000
C144        C  0.38550782  0.41038565  0.31944067    -0.07000
Co145      Co  0.45271152  0.52265604  0.25839756     0.73800
N146        N  0.56303487  0.61412798  0.31171123    -0.47200
C147        C  0.46277507  0.38062897  0.17054496     0.42300
N148        N  0.37958177  0.47975764  0.20793528    -0.47200
Co149      Co  0.56738277  0.56602691  0.25302707     0.73900
C150        C  0.61691694  0.57242445  0.19084979    -0.07500
C151        C  0.52619897  0.38990694  0.29870044    -0.07100
N152        N  0.39884100  0.43321141  0.22762699    -0.26600
N153        N  0.60921238  0.48720801  0.30093993    -0.47400
H154        H  0.53917240  0.41540631  0.17343865     0.06300
C155        C  0.48006074  0.58172251  0.19536745    -0.07500
Cl156      Cl  0.49989456  0.48980175  0.25359346    -0.50500
C157        C  0.53208248  0.61741767  0.32846271     0.42000
H158        H  0.35071294  0.37114205  0.20519263     0.06300
N159        N  0.55446110  0.61068689  0.19558858    -0.47200
O160        O  0.76846797  0.46078061  0.48824849    -0.80700
O161        O  0.76227720  0.59377188  0.06194212    -0.80700
O162        O  0.80439223  0.53208035  0.04050545    -0.80700
O163        O  0.68072768  0.51744464  0.00141130    -0.80700
O164        O  0.84181613  0.60076850  0.05840988    -0.80800
O165        O  0.72289843  0.49323361  0.52472597    -0.80700
O166        O  0.71192160  0.59611395  0.03275236    -0.80700
O167        O  0.84192302  0.51143198  0.49149553    -0.80700
C168        C  0.80898511  0.46949725  0.49138602     1.09000
C169        C  0.72357957  0.58717821  0.05846111     1.08900
C170        C  0.82650478  0.55906137  0.06241085     1.09000
C171        C  0.68434409  0.48672207  0.51954157     1.08900
O172        O  0.71209548  0.49444137  0.45623147    -0.80700
O173        O  0.87155279  0.66684023  0.01084002    -0.80800
O174        O  0.84838053  0.58438817  0.45321072    -0.80700
O175        O  0.75822230  0.64997654  0.97969398    -0.80700
O176        O  0.79398592  0.67343047  0.02427564    -0.80800
O177        O  0.78956844  0.52330230  0.44393351    -0.80700
O178        O  0.72864442  0.56455801  0.44560672    -0.80700
O179        O  0.88306053  0.60841819  0.50743470    -0.80700
Co180      Co  0.76350035  0.51585773  0.48755769     1.51500
Co181      Co  0.81492237  0.63041273  0.03541496     1.51700
Co182      Co  0.82254974  0.55652219  0.49506997     1.51600
Co183      Co  0.72498563  0.58353933  0.99000655     1.51500
O184        O  0.78433860  0.58596045  0.99840378    -1.42600
C185        C  0.70877945  0.52286420  0.43846663     1.08900
C186        C  0.89786176  0.65156944  0.00794081     1.09000
C187        C  0.82604182  0.55484355  0.43354085     1.08900
C188        C  0.77244514  0.67816355  0.00221378     1.08900
O189        O  0.71564955  0.21140504  0.49467438    -0.80700
O190        O  0.84615598  0.22999088  0.06202290    -0.80700
O191        O  0.74104107  0.18312599  0.03822103    -0.80700
O192        O  0.85771451  0.31126726  0.99569987    -0.80700
O193        O  0.77050669  0.14782432  0.06006509    -0.80800
O194        O  0.79294292  0.27690788  0.51784405    -0.80700
O195        O  0.89991771  0.27933184  0.03091360    -0.80700
O196        O  0.68324180  0.13687190  0.49063315    -0.80700
C197        C  0.68009027  0.17235348  0.49179145     1.09000
C198        C  0.87885969  0.26954528  0.05684290     1.08900
C199        C  0.74499175  0.16354859  0.06205596     1.09000
C200        C  0.82810239  0.31347995  0.51101000     1.08900
O201        O  0.80747154  0.27727734  0.45241779    -0.80700
O202        O  0.80824099  0.11793239  0.01431897    -0.80800
O203        O  0.75132760  0.14131272  0.45417925    -0.80700
O204        O  0.89197801  0.22021305  0.97797187    -0.80700
O205        O  0.89455187  0.19975237  0.02524460    -0.80800
O206        O  0.74966498  0.20185748  0.44601760    -0.80700
O207        O  0.85222604  0.25217643  0.44495818    -0.80700
O208        O  0.73845359  0.10070783  0.51087433    -0.80700
Co209      Co  0.77898837  0.23099846  0.48650250     1.51500
Co210      Co  0.82914028  0.17569625  0.03742681     1.51700
Co211      Co  0.74769705  0.16142148  0.49709895     1.51600
Co212      Co  0.87275232  0.26271187  0.98752655     1.51500
O213        O  0.81557705  0.20429925  0.99921395    -1.42600
C214        C  0.83456286  0.27370110  0.43496721     1.08900
C215        C  0.76655247  0.08941772  0.01045262     1.09000
C216        C  0.74246866  0.16427445  0.43573916     1.08900
C217        C  0.91430924  0.21710308  0.99934759     1.08900
O218        O  0.29932581  0.78976415  0.48764326    -0.80700
O219        O  0.15061393  0.77211588  0.06055962    -0.80700
O220        O  0.26959873  0.82124636  0.03934481    -0.80700
O221        O  0.14537500  0.66948292  0.00473071    -0.80700
O222        O  0.23162903  0.85151776  0.05723371    -0.80800
O223        O  0.21942362  0.71010998  0.50081952    -0.80700
O224        O  0.18596586  0.73838913  0.04630859    -0.80700
O225        O  0.33000843  0.86425184  0.49034065    -0.80700
C226        C  0.33429488  0.82975494  0.48746421     1.09000
C227        C  0.16551495  0.74651017  0.06711328     1.08900
C228        C  0.26096913  0.84049125  0.06109056     1.09000
C229        C  0.18257609  0.67231071  0.50507836     1.08900
O230        O  0.20417331  0.72960613  0.44324467    -0.80700
O231        O  0.20324610  0.88028677  0.00364623    -0.80800
O232        O  0.26412061  0.85716390  0.45047618    -0.80700
O233        O  0.10654377  0.72437581  0.01339367    -0.80700
O234        O  0.11881258  0.79417135  0.00631832    -0.80800
O235        O  0.25989302  0.79453332  0.43795579    -0.80700
O236        O  0.14355279  0.72566501  0.45880482    -0.80700
O237        O  0.27290661  0.89721711  0.50609284    -0.80700
Co238      Co  0.23438154  0.76855072  0.47928186     1.51500
Co239      Co  0.17736247  0.82352012  0.02964159     1.51700
Co240      Co  0.26532773  0.83818307  0.49444465     1.51600
Co241      Co  0.16632365  0.73349331  0.00227058     1.51500
O242        O  0.20097925  0.79841960  0.99660521    -1.42600
C243        C  0.16493738  0.71943708  0.43773009     1.08900
C244        C  0.24524760  0.90872512  0.00475268     1.09000
C245        C  0.26783992  0.83332217  0.42977618     1.08900
C246        C  0.09201897  0.75077869  0.00691881     1.08900
O247        O  0.51882883  0.82185836  0.50148150    -0.80700
O248        O  0.59261080  0.70727015  0.03511701    -0.80700
O249        O  0.49561504  0.72529964  0.51042346    -0.80700
O250        O  0.58078987  0.82587388  0.06137450    -0.80700
O251        O  0.52555652  0.68561478  0.99327053    -0.80800
O252        O  0.59783845  0.88173715  0.02885768    -0.80700
O253        O  0.57961410  0.74995912  0.06610753    -0.80700
O254        O  0.48006050  0.77262273  0.46475083    -0.80700
C255        C  0.48388427  0.80261598  0.48369481     1.09000
C256        C  0.57797561  0.71321657  0.06094902     1.08900
C257        C  0.49154433  0.68709230  0.50474841     1.09000
C258        C  0.58354914  0.86307014  0.05536917     1.08900
O259        O  0.65022430  0.87174033  0.48224193    -0.80700
O260        O  0.59165308  0.75102178  0.44736292    -0.80800
O261        O  0.56522884  0.82157978  0.44452095    -0.80700
O262        O  0.66863663  0.78843363  0.03829479    -0.80700
O263        O  0.65689383  0.77414103  0.98884183    -0.80800
O264        O  0.58280520  0.88747056  0.46549466    -0.80700
O265        O  0.66853568  0.87217630  0.03118724    -0.80700
O266        O  0.52203719  0.72951637  0.44692551    -0.80700
Co267      Co  0.58553388  0.84253301  0.49081471     1.51500
Co268      Co  0.59240406  0.73301236  0.99164782     1.51700
Co269      Co  0.53199861  0.77452767  0.48050468     1.51600
Co270      Co  0.62250433  0.80819447  0.04657716     1.51500
O271        O  0.58742405  0.78676472  0.00557087    -1.42600
C272        C  0.67646661  0.89269541  0.00467015     1.08900
C273        C  0.55490258  0.73105007  0.43357151     1.09000
C274        C  0.57233060  0.86226926  0.44145476     1.08900
C275        C  0.67972199  0.77830300  0.01237488     1.08900
O276        O  0.16051024  0.42591427  0.46015233    -0.80700
O277        O  0.27841195  0.37769658  0.02758951    -0.80700
O278        O  0.24588595  0.42101929  0.44962300    -0.80700
O279        O  0.13582178  0.33062497  0.00102053    -0.80700
O280        O  0.30589166  0.44331490  0.47899292    -0.80800
O281        O  0.11530363  0.38010104  0.51469767    -0.80700
O282        O  0.21091906  0.32818511  0.00939708    -0.80700
O283        O  0.22089112  0.48381146  0.43839943    -0.80700
C284        C  0.17923515  0.45530736  0.43743664     1.09000
C285        C  0.25094274  0.33981213  0.01467723     1.08900
C286        C  0.28580359  0.42978827  0.45264414     1.09000
C287        C  0.10557610  0.33971461  0.00353982     1.08900
O288        O  0.18306289  0.44728854  0.05057631    -0.80700
O289        O  0.29880679  0.50288037  0.02580643    -0.80800
O290        O  0.21861890  0.50506454  0.49891380    -0.80700
O291        O  0.22133010  0.36425482  0.07136398    -0.80700
O292        O  0.26520169  0.43820649  0.06839851    -0.80800
O293        O  0.14566560  0.46852772  0.50730604    -0.80700
O294        O  0.14964869  0.37434001  0.06300737    -0.80700
O295        O  0.29355523  0.50998691  0.47460431    -0.80700
Co296      Co  0.17581776  0.43623136  0.50827894     1.51500
Co297      Co  0.28422267  0.43930098  0.02537856     1.51700
Co298      Co  0.22908065  0.45789725  0.47496183     1.51600
Co299      Co  0.18149138  0.35303516  0.03408646     1.51500
O300        O  0.22067928  0.41497474  0.01152987    -1.42600
C301        C  0.16116936  0.41521800  0.06995481     1.08900
C302        C  0.31395689  0.52664037  0.49997541     1.09000
C303        C  0.18268768  0.50560241  0.50547022     1.08900
C304        C  0.24788462  0.40211570  0.08426147     1.08900
O305        O  0.48623571  0.15941965  0.48803468    -0.80700
O306        O  0.40439260  0.29050457  0.03203811    -0.80700
O307        O  0.50699654  0.28107812  0.52566964    -0.80700
O308        O  0.39950842  0.15909200  0.05884059    -0.80700
O309        O  0.48371727  0.32439493  0.00255680    -0.80800
O310        O  0.46651413  0.19370528  0.03850380    -0.80700
O311        O  0.40416119  0.23826714  0.06216025    -0.80700
O312        O  0.53600096  0.23468172  0.48701168    -0.80700
C313        C  0.52735766  0.19333430  0.48740280     1.09000
C314        C  0.41285599  0.27820674  0.05790067     1.08900
C315        C  0.51326402  0.32071345  0.52108333     1.09000
C316        C  0.44057074  0.17264463  0.06124395     1.08900
O317        O  0.39115641  0.11769489  0.50765427    -0.80700
O318        O  0.44089077  0.27807788  0.44676555    -0.80800
O319        O  0.47527977  0.21330811  0.44556907    -0.80700
O320        O  0.32989029  0.21013535  0.02112221    -0.80700
O321        O  0.35883799  0.23984252  0.97569885    -0.80800
O322        O  0.41298765  0.15537048  0.45342868    -0.80700
O323        O  0.33506694  0.13059231  0.00968200    -0.80700
O324        O  0.50794571  0.29292977  0.45907709    -0.80700
Co325      Co  0.44208743  0.17898604  0.49470134     1.51500
Co326      Co  0.42049907  0.27892608  0.98931408     1.51700
Co327      Co  0.48358422  0.23963317  0.48912460     1.51600
Co328      Co  0.36986641  0.18653610  0.03508778     1.51500
O329        O  0.41616757  0.21912441  0.99966696    -1.42600
C330        C  0.34881369  0.10280637  0.00876514     1.08900
C331        C  0.48132573  0.29465719  0.43968301     1.09000
C332        C  0.44361228  0.17768624  0.43453793     1.08900
C333        C  0.33022863  0.23124069  0.99641545     1.08900
C334        C  0.26485759  0.23719635  0.01212994    -0.20900
C335        C  0.30550166  0.25569942  0.99565819    -0.07400
C336        C  0.32537059  0.30074210  0.98294509     0.13400
C337        C  0.30559482  0.32643088  0.98892506    -0.20900
C338        C  0.26634527  0.30860599  0.00651010    -0.07400
C339        C  0.24463533  0.26293866  0.01733694     0.13400
C340        C  0.20145746  0.24207438  0.03563247    -0.24300
H341        H  0.24960291  0.20294821  0.02180579     0.14700
H342        H  0.32151411  0.36138341  0.98039221     0.14700
C343        C  0.36865808  0.32372781  0.96447965    -0.24200
H344        H  0.18994529  0.20656771  0.04320244     0.04900
H345        H  0.17510905  0.24168355  0.51562599     0.08200
H346        H  0.20610394  0.26259230  0.05688629     0.08200
H347        H  0.37159485  0.31012149  0.44419128     0.08200
H348        H  0.39643075  0.32733935  0.97916793     0.08200
H349        H  0.37830497  0.35865071  0.95660877     0.04900
C350        C  0.39429223  0.56401730  0.51285183    -0.20900
C351        C  0.35899029  0.56817680  0.50114324    -0.07400
C352        C  0.36836199  0.61020941  0.99188661     0.13400
C353        C  0.41172190  0.64880215  0.99417298    -0.20900
C354        C  0.44630080  0.64560480  0.50627063    -0.07400
C355        C  0.43790400  0.60205669  0.51543922     0.13400
C356        C  0.47327926  0.59417577  0.52878073    -0.24300
H357        H  0.38778624  0.53071238  0.51993742     0.14700
H358        H  0.41790415  0.68125924  0.98541629     0.14700
C359        C  0.33109041  0.61508537  0.97873100    -0.24200
H360        H  0.46251961  0.57799565  0.55230526     0.04900
H361        H  0.50749465  0.62824173  0.03406898     0.08200
H362        H  0.47777557  0.57100531  0.51320152     0.08200
H363        H  0.30456305  0.60452771  0.99678523     0.08200
H364        H  0.31366462  0.59711369  0.46084156     0.08200
H365        H  0.34294006  0.65088400  0.97174620     0.04900
C366        C  0.28277571  0.03223922  0.98769549    -0.20900
C367        C  0.31681869  0.05340780  0.01023435    -0.07400
C368        C  0.32173247  0.02666035  0.03333031     0.13400
C369        C  0.29519957  0.97939971  0.03167567    -0.20900
C370        C  0.26361943  0.95788636  0.00786717    -0.07400
C371        C  0.25581220  0.98428085  0.98628987     0.13400
C372        C  0.22000184  0.96350105  0.46061445    -0.24300
H373        H  0.27857368  0.05455076  0.46932032     0.14700
H374        H  0.30042722  0.95878450  0.04854737     0.14700
C375        C  0.35464101  0.04746309  0.05998740    -0.24200
H376        H  0.21899410  0.98921627  0.44524063     0.04900
H377        H  0.18729261  0.94087682  0.97227326     0.08200
H378        H  0.22675128  0.94126716  0.44578282     0.08200
H379        H  0.34770778  0.07076146  0.07342314     0.08200
H380        H  0.38972207  0.06756669  0.54972668     0.08200
H381        H  0.35205099  0.02105764  0.07655637     0.04900
C382        C  0.21649145  0.58596661  0.49170113    -0.20900
C383        C  0.18487755  0.54921223  0.50973159    -0.07400
C384        C  0.15439460  0.55419988  0.52865647     0.13400
C385        C  0.15461791  0.59519867  0.52717297    -0.20900
C386        C  0.18502138  0.63108177  0.50777520    -0.07400
C387        C  0.21730611  0.62686599  0.49031828     0.13400
C388        C  0.25155569  0.66391993  0.46879745    -0.24300
H389        H  0.23879702  0.58146574  0.47671044     0.14700
H390        H  0.13340117  0.59705040  0.03894577     0.14700
C391        C  0.12224511  0.51713622  0.55077485    -0.24200
H392        H  0.27112026  0.65242202  0.45537067     0.04900
H393        H  0.26991429  0.69041974  0.97198686     0.08200
H394        H  0.23475157  0.67412009  0.45140768     0.08200
H395        H  0.14789327  0.50759502  0.06257091     0.08200
H396        H  0.09695510  0.48699536  0.53746490     0.08200
H397        H  0.10941749  0.52740885  0.06367183     0.04900
C398        C  0.42449243  0.80977001  0.45719931    -0.20900
C399        C  0.44892676  0.81525274  0.48469785    -0.07400
C400        C  0.44144072  0.83431033  0.01075729     0.13400
C401        C  0.40570218  0.84219253  0.01026697    -0.20900
C402        C  0.37813403  0.83313989  0.48425134    -0.07400
C403        C  0.38947153  0.81861039  0.45658494     0.13400
C404        C  0.36462051  0.81210856  0.42633566    -0.24300
H405        H  0.43253999  0.79806900  0.43607865     0.14700
H406        H  0.39800095  0.85499967  0.03095125     0.14700
C407        C  0.46925091  0.84619396  0.03988139    -0.24200
H408        H  0.37897957  0.80238542  0.40679523     0.04900
H409        H  0.36670088  0.84450631  0.41962334     0.08200
H410        H  0.32906770  0.78461224  0.42913616     0.08200
H411        H  0.50434540  0.87294106  0.03432664     0.08200
H412        H  0.46765862  0.81511267  0.04924594     0.08200
H413        H  0.45720043  0.85981346  0.05848767     0.04900
C414        C  0.73507749  0.01839097  0.97892356    -0.20900
C415        C  0.75052138  0.04008707  0.00783083    -0.07400
C416        C  0.74886899  0.01407023  0.03407279     0.13400
C417        C  0.72885280  0.96644388  0.03133503    -0.20900
C418        C  0.70924538  0.94350721  0.00308089    -0.07400
C419        C  0.71508529  0.97069566  0.97600136     0.13400
C420        C  0.70121056  0.95019804  0.44492544    -0.24300
H421        H  0.73764864  0.03881050  0.95864875     0.14700
H422        H  0.72588558  0.94680907  0.05215532     0.14700
C423        C  0.76595109  0.03623627  0.06547833    -0.24200
H424        H  0.71365371  0.97722727  0.42656241     0.04900
H425        H  0.66326962  0.93047362  0.94266982     0.08200
H426        H  0.71468208  0.92790747  0.43956952     0.08200
H427        H  0.74746623  0.05290401  0.07306794     0.08200
H428        H  0.79969381  0.05989888  0.56668723     0.08200
H429        H  0.76143948  0.01098702  0.08377330     0.04900
C430        C  0.98994321  0.23544071  0.01755286    -0.20900
C431        C  0.96417337  0.24409921  0.99659454    -0.07400
C432        C  0.98672762  0.28241819  0.97572351     0.13400
C433        C  0.03313841  0.31172674  0.97795590    -0.20900
C434        C  0.05818005  0.30390042  0.99963053    -0.07400
C435        C  0.03678768  0.26458038  0.01902394     0.13400
C436        C  0.06302283  0.25437565  0.04217581    -0.24300
H437        H  0.97326712  0.20644770  0.03340829     0.14700
H438        H  0.05012105  0.34195564  0.96314213     0.14700
C439        C  0.96287110  0.29507324  0.95194087    -0.24200
H440        H  0.04097585  0.22304302  0.05611319     0.04900
H441        H  0.08091833  0.28321875  0.05863743     0.08200
H442        H  0.08854158  0.25040951  0.52967744     0.08200
H443        H  0.93999359  0.30347030  0.96400631     0.08200
H444        H  0.94376264  0.26621038  0.43645250     0.08200
H445        H  0.98646683  0.32571546  0.93797180     0.04900
C446        C  0.56274478  0.14846240  0.47380687    -0.20900
C447        C  0.56512866  0.18607606  0.48885097    -0.07400
C448        C  0.60234902  0.21855127  0.00599198     0.13400
C449        C  0.63864131  0.21311000  0.00582161    -0.20900
C450        C  0.63780932  0.17234946  0.49151976    -0.07400
C451        C  0.59934578  0.14185635  0.47430428     0.13400
C452        C  0.59784801  0.10443265  0.45511919    -0.24300
H453        H  0.53288637  0.12525810  0.46068374     0.14700
H454        H  0.66857365  0.23816441  0.01755030     0.14700
C455        C  0.60769508  0.25975812  0.02303320    -0.24200
H456        H  0.56565133  0.08460930  0.44237258     0.04900
H457        H  0.60160856  0.08053053  0.47061471     0.08200
H458        H  0.62536303  0.11943758  0.43753333     0.08200
H459        H  0.57961117  0.24971471  0.03962405     0.08200
H460        H  0.60959909  0.28506069  0.00577914     0.08200
H461        H  0.63903306  0.27745049  0.03692314     0.04900
C462        C  0.96986837  0.66284336  0.98977402    -0.20900
C463        C  0.94725287  0.68232613  0.00345460    -0.07400
C464        C  0.97288156  0.72772093  0.01466545     0.13400
C465        C  0.02027234  0.75069454  0.01382005    -0.20900
C466        C  0.04264247  0.72944725  0.00208993    -0.07400
C467        C  0.01656093  0.68551301  0.98855769     0.13400
C468        C  0.03708898  0.66171029  0.97235816    -0.24300
H469        H  0.95069589  0.62835251  0.98078502     0.14700
H470        H  0.03985971  0.78448479  0.02385872     0.14700
C471        C  0.95083156  0.75124670  0.02896379    -0.24200
H472        H  0.01141024  0.62927208  0.96127165     0.04900
H473        H  0.05527581  0.65270262  0.98935846     0.08200
H474        H  0.06098740  0.69221876  0.44862672     0.08200
H475        H  0.93025272  0.73136371  0.04949352     0.08200
H476        H  0.92753381  0.75264723  0.51510305     0.08200
H477        H  0.97587340  0.78614226  0.03707500     0.04900
C478        C  0.72776967  0.75117566  0.03660815    -0.20900
C479        C  0.71350624  0.76340136  0.00955548    -0.07400
C480        C  0.72631256  0.75415873  0.97994753     0.13400
C481        C  0.74769334  0.72875125  0.97846315    -0.20900
C482        C  0.75819432  0.71280341  0.00546584    -0.07400
C483        C  0.74968388  0.72617659  0.03512414     0.13400
C484        C  0.76120467  0.71251613  0.06572490    -0.24300
H485        H  0.71961179  0.75909209  0.05923476     0.14700
H486        H  0.75492245  0.71988020  0.95579413     0.14700
C487        C  0.71730003  0.77015751  0.94931999    -0.24200
H488        H  0.75161974  0.72543125  0.08625780     0.04900
H489        H  0.79784664  0.72681063  0.06702621     0.08200
H490        H  0.74304072  0.67488415  0.06791935     0.08200
H491        H  0.72171164  0.79858764  0.44659416     0.08200
H492        H  0.68102258  0.75062709  0.94397750     0.08200
H493        H  0.72303389  0.75351790  0.42652755     0.04900
C494        C  0.85714760  0.39188002  0.49067796    -0.20900
C495        C  0.82793198  0.35683030  0.51143188    -0.07400
C496        C  0.79428416  0.36095460  0.52704125     0.13400
C497        C  0.78927410  0.39813511  0.51982119    -0.20900
C498        C  0.81692758  0.43162042  0.49774268    -0.07400
C499        C  0.85207958  0.42905799  0.48365300     0.13400
C500        C  0.88300708  0.46417509  0.46003297    -0.24300
H501        H  0.88283076  0.38912379  0.47846811     0.14700
H502        H  0.76184794  0.39999602  0.03328893     0.14700
C503        C  0.76188000  0.32468282  0.05188372    -0.24200
H504        H  0.90684704  0.45537810  0.44989629     0.04900
H505        H  0.89741632  0.49444961  0.96866534     0.08200
H506        H  0.86318224  0.46648165  0.44054968     0.08200
H507        H  0.78293075  0.32156735  0.07004922     0.08200
H508        H  0.73996907  0.29354537  0.54018989     0.08200
H509        H  0.74046789  0.33540206  0.06365412     0.04900
C510        C  0.59465826  0.36143979  0.53525348    -0.20900
C511        C  0.55559649  0.36298929  0.53131031    -0.07400
C512        C  0.55985088  0.40655772  0.53180241     0.13400
C513        C  0.60271887  0.44629742  0.53140767    -0.20900
C514        C  0.64199431  0.44453496  0.53037024    -0.07400
C515        C  0.63769482  0.40124125  0.53445208     0.13400
C516        C  0.67788359  0.39618846  0.53541156    -0.24300
H517        H  0.59169561  0.32784452  0.53629790     0.14700
H518        H  0.60312500  0.48067971  0.02557549     0.14700
C519        C  0.51736908  0.41283277  0.02742047    -0.24200
H520        H  0.66841239  0.36024748  0.53979988     0.04900
H521        H  0.69757402  0.42025224  0.05701409     0.08200
H522        H  0.69528367  0.40667103  0.51252904     0.08200
H523        H  0.49372474  0.39231884  0.04652898     0.08200
H524        H  0.50191604  0.40177852  0.50943515     0.08200
H525        H  0.52680458  0.44891197  0.03067128     0.04900
C526        C  0.47191158  0.33388257  0.13300254    -0.20900
C527        C  0.45107141  0.35778232  0.14053226    -0.07400
C528        C  0.42034570  0.35902988  0.11974839     0.13400
C529        C  0.41059410  0.33497862  0.09158615    -0.20900
C530        C  0.42998104  0.30902645  0.08468469    -0.07400
C531        C  0.46171613  0.30909169  0.10557613     0.13400
C532        C  0.48608650  0.28420173  0.09976904    -0.24300
H533        H  0.49570868  0.33370210  0.14923001     0.14700
H534        H  0.38621537  0.33462810  0.07567528     0.14700
C535        C  0.39803504  0.38550227  0.12712753    -0.24200
H536        H  0.50712817  0.28639361  0.11998861     0.04900
H537        H  0.50909560  0.29988171  0.07984582     0.08200
H538        H  0.46244359  0.24767230  0.09587091     0.08200
H539        H  0.42378955  0.42189981  0.13119945     0.08200
H540        H  0.37688230  0.37100306  0.14836280     0.08200
H541        H  0.37611433  0.38391595  0.10769974     0.04900
C542        C  0.46786364  0.28003920  0.38432902    -0.20900
C543        C  0.49416162  0.31106238  0.40774532    -0.07400
C544        C  0.52174169  0.35790535  0.40061395     0.13400
C545        C  0.52021937  0.37274898  0.37033779    -0.20900
C546        C  0.49105273  0.34190501  0.34784450    -0.07400
C547        C  0.46590083  0.29497013  0.35433753     0.13400
C548        C  0.43668334  0.26092509  0.32987345    -0.24300
H549        H  0.44627589  0.24411590  0.39020281     0.14700
H550        H  0.54021974  0.40893346  0.36470997     0.14700
C551        C  0.55047398  0.39322528  0.42460518    -0.24200
H552        H  0.41970932  0.22532644  0.33901389     0.04900
H553        H  0.45746477  0.26340740  0.30939803     0.08200
H554        H  0.41055974  0.26804099  0.32214131     0.08200
H555        H  0.54916317  0.37829337  0.44795535     0.08200
H556        H  0.53927371  0.41800580  0.42727805     0.08200
H557        H  0.58588920  0.41190695  0.41657795     0.04900
C558        C  0.63252661  0.56508818  0.11717196    -0.20900
C559        C  0.64580043  0.54876725  0.14247878    -0.07400
C560        C  0.68072694  0.54012829  0.13898415     0.13400
C561        C  0.70379662  0.55105424  0.11060660    -0.20900
C562        C  0.69300857  0.57062233  0.08570834    -0.07400
C563        C  0.65492498  0.57495439  0.08832335     0.13400
C564        C  0.63719675  0.58919052  0.06117656    -0.24300
H565        H  0.60421048  0.56961163  0.11995870     0.14700
H566        H  0.73079126  0.54451985  0.10801067     0.14700
C567        C  0.69498401  0.52115169  0.16546064    -0.24200
H568        H  0.60642800  0.58922829  0.06764312     0.04900
H569        H  0.62823999  0.56472985  0.04162215     0.08200
H570        H  0.66269414  0.62406733  0.05312841     0.08200
H571        H  0.66715992  0.48644294  0.17190972     0.08200
H572        H  0.70441884  0.54383455  0.18613448     0.08200
H573        H  0.72429493  0.51845381  0.15889707     0.04900
C574        C  0.69627775  0.50077599  0.38258873    -0.20900
C575        C  0.68059633  0.50960292  0.41022511    -0.07400
C576        C  0.64543832  0.51862845  0.40863284     0.13400
C577        C  0.62958497  0.52267461  0.37930803    -0.20900
C578        C  0.64737178  0.51687727  0.35155909    -0.07400
C579        C  0.67965488  0.50374683  0.35320644     0.13400
C580        C  0.69843408  0.49531763  0.32397489    -0.24300
H581        H  0.72341634  0.49439379  0.38382759     0.14700
H582        H  0.60337157  0.53062085  0.37802311     0.14700
C583        C  0.62508751  0.52468575  0.43800560    -0.24200
H584        H  0.72484311  0.48752661  0.32947979     0.04900
H585        H  0.71341619  0.52609433  0.30864697     0.08200
H586        H  0.67142252  0.46577747  0.31111334     0.08200
H587        H  0.65044265  0.55496607  0.45118881     0.08200
H588        H  0.61214154  0.49381737  0.45309724     0.08200
H589        H  0.59678446  0.52963243  0.43260288     0.04900
C590        C  0.51871958  0.66640909  0.10012757    -0.20900
C591        C  0.56051983  0.67903609  0.08694577    -0.07400
C592        C  0.58786905  0.66633645  0.10267180     0.13400
C593        C  0.57301852  0.64173686  0.13109694    -0.20900
C594        C  0.53185601  0.63046097  0.14519276    -0.07400
C595        C  0.50391421  0.64231448  0.12882521     0.13400
C596        C  0.45940899  0.63171537  0.14167619    -0.24300
H597        H  0.49806130  0.67701021  0.08826459     0.14700
H598        H  0.59506056  0.63317428  0.14315154     0.14700
C599        C  0.63444165  0.68248318  0.09103275    -0.24200
H600        H  0.44387313  0.64646808  0.12680590     0.04900
H601        H  0.46366457  0.64622800  0.16550182     0.08200
H602        H  0.43596244  0.59423782  0.14219338     0.08200
H603        H  0.65465554  0.72031095  0.09182911     0.08200
H604        H  0.63314984  0.67138196  0.06651663     0.08200
H605        H  0.65144988  0.66897711  0.10556545     0.04900
C606        C  0.51364502  0.66804858  0.35669624    -0.20900
C607        C  0.54125978  0.64965423  0.35394252    -0.07400
C608        C  0.57494262  0.66045202  0.37630836     0.13400
C609        C  0.57885962  0.68798909  0.40157619    -0.20900
C610        C  0.55030388  0.70523888  0.40496955    -0.07400
C611        C  0.51779170  0.69587891  0.38192119     0.13400
C612        C  0.48793215  0.71548741  0.38342368    -0.24300
H613        H  0.48844063  0.66043422  0.33906479     0.14700
H614        H  0.60346080  0.69468074  0.41945392     0.14700
C615        C  0.60552430  0.64164530  0.37457035    -0.24200
H616        H  0.46649855  0.70679178  0.36230076     0.04900
H617        H  0.50869736  0.75329301  0.38496740     0.08200
H618        H  0.46538521  0.70153801  0.40409073     0.08200
H619        H  0.62654948  0.65459911  0.35312260     0.08200
H620        H  0.58542175  0.60374499  0.37424101     0.08200
H621        H  0.62848328  0.65216215  0.39496609     0.04900
C622        C  0.29593814  0.38274538  0.15781045    -0.20900
C623        C  0.31792800  0.42699172  0.17055448    -0.07400
C624        C  0.30825730  0.45936653  0.15820126     0.13400
C625        C  0.28062291  0.44783334  0.13186653    -0.20900
C626        C  0.26350685  0.40556994  0.11685819    -0.07400
C627        C  0.26944729  0.37172749  0.13091274     0.13400
C628        C  0.25069417  0.32506023  0.11675807    -0.24300
H629        H  0.30125167  0.35676288  0.16775983     0.14700
H630        H  0.27479966  0.47336503  0.12157345     0.14700
C631        C  0.32776075  0.50657462  0.17159198    -0.24200
H632        H  0.25886792  0.30311037  0.13099930     0.04900
H633        H  0.26503945  0.32824510  0.09300184     0.08200
H634        H  0.21366687  0.30757684  0.11534687     0.08200
H635        H  0.36465770  0.52617336  0.16857223     0.08200
H636        H  0.31889508  0.50417675  0.19680090     0.08200
H637        H  0.31473008  0.52617808  0.15958651     0.04900
C638        C  0.37845778  0.46346572  0.39164941    -0.20900
C639        C  0.35416935  0.43586869  0.36640984    -0.07400
C640        C  0.30788177  0.40412730  0.37008286     0.13400
C641        C  0.28682552  0.40153582  0.39885166    -0.20900
C642        C  0.31092692  0.42968590  0.42425455    -0.07400
C643        C  0.35779774  0.46075386  0.42051908     0.13400
C644        C  0.38635901  0.49304647  0.44603896    -0.24300
H645        H  0.41397581  0.48784312  0.38855759     0.14700
H646        H  0.25104657  0.37797071  0.40128901     0.14700
C647        C  0.28027572  0.37451830  0.34324918    -0.24200
H648        H  0.42173577  0.51557647  0.43848091     0.04900
H649        H  0.38644303  0.47349464  0.46683645     0.08200
H650        H  0.37338698  0.51538421  0.45245284     0.08200
H651        H  0.29252379  0.35180094  0.33611104     0.08200
H652        H  0.28281736  0.39630079  0.32303195     0.08200
H653        H  0.24436156  0.35268586  0.34974292     0.04900
C654        C  0.87379684  0.56314812  0.14320372    -0.24500
C655        C  0.88525368  0.52991857  0.14059543    -0.07400
C656        C  0.87321663  0.50275592  0.11324312     0.13400
C657        C  0.85081654  0.51055282  0.08882917    -0.20900
C658        C  0.84078479  0.54515172  0.09096296    -0.07400
C659        C  0.85179563  0.57124756  0.11896201     0.13400
C660        C  0.84102255  0.60817454  0.12383393    -0.24300
H661        H  0.88239834  0.58318616  0.16444366     0.14700
H662        H  0.84325942  0.49118365  0.06734800     0.14700
C663        C  0.88616703  0.46746033  0.10876416    -0.24200
H664        H  0.84751083  0.62084540  0.14831286     0.04900
H665        H  0.80520020  0.59471883  0.11899156     0.08200
H666        H  0.86220144  0.63804339  0.10849851     0.08200
H667        H  0.86834433  0.43918159  0.12589034     0.08200
H668        H  0.92287843  0.48343984  0.11173402     0.08200
H669        H  0.87730028  0.45224136  0.08499887     0.04900
C670        C  0.89869816  0.57596954  0.35996048    -0.20900
C671        C  0.87335258  0.53407531  0.34411374    -0.07400
C672        C  0.82992361  0.50242359  0.35603734     0.13400
C673        C  0.81561001  0.51155446  0.38441292    -0.20900
C674        C  0.84196398  0.55212926  0.40125772    -0.07400
C675        C  0.88355659  0.58554384  0.38800104     0.13400
C676        C  0.91248150  0.63123205  0.40319107    -0.24300
H677        H  0.93123621  0.60128462  0.35074069     0.14700
H678        H  0.78377810  0.48551731  0.39409318     0.14700
C679        C  0.79730798  0.45898006  0.33942691    -0.24200
H680        H  0.94269600  0.65398332  0.38890899     0.04900
H681        H  0.92398113  0.62656179  0.42626179     0.08200
H682        H  0.89318419  0.64845218  0.40615633     0.08200
H683        H  0.80735016  0.43345916  0.34230700     0.08200
H684        H  0.79492519  0.46607852  0.31431389     0.08200
H685        H  0.76304461  0.44317642  0.34947100     0.04900
C686        C  0.85718610  0.29835275  0.10222075    -0.20900
C687        C  0.89171665  0.30318266  0.08246276    -0.07400
C688        C  0.93647390  0.33673575  0.08947231     0.13400
C689        C  0.94571045  0.36096403  0.11772930    -0.20900
C690        C  0.91121961  0.35367573  0.13845848    -0.07400
C691        C  0.86630043  0.32339728  0.12991813     0.13400
C692        C  0.82791045  0.31539942  0.15064104    -0.24300
H693        H  0.82264013  0.27369457  0.09637740     0.14700
H694        H  0.98020505  0.38518351  0.12397760     0.14700
C695        C  0.97458219  0.34609098  0.06801236    -0.24200
H696        H  0.79503592  0.28932606  0.14075947     0.04900
H697        H  0.82789653  0.34762129  0.15309217     0.08200
H698        H  0.83113600  0.30323654  0.17410487     0.08200
H699        H  0.96975685  0.35746780  0.04471928     0.08200
H700        H  0.97619515  0.31476052  0.06532035     0.08200
H701        H  0.00720902  0.37363581  0.07723158     0.04900
C702        C  0.87379431  0.30048340  0.35137396    -0.20900
C703        C  0.88221753  0.34490393  0.34892549    -0.07400
C704        C  0.87094184  0.36429613  0.37364108     0.13400
C705        C  0.85255481  0.33878806  0.40100634    -0.20900
C706        C  0.84668436  0.29530291  0.40418148    -0.07400
C707        C  0.85591443  0.27512036  0.37878611     0.13400
C708        C  0.84653509  0.22690791  0.38010881    -0.24300
H709        H  0.88194185  0.28589049  0.33186164     0.14700
H710        H  0.84518013  0.35385368  0.42062951     0.14700
C711        C  0.88088617  0.41262223  0.37208473    -0.24200
H712        H  0.85249517  0.21595383  0.35709863     0.04900
H713        H  0.81102293  0.20307154  0.38660526     0.08200
H714        H  0.86875900  0.22412739  0.39734268     0.08200
H715        H  0.86221229  0.41612113  0.35247465     0.08200
H716        H  0.91733008  0.43660181  0.36845488     0.08200
H717        H  0.87077153  0.42244414  0.39391041     0.04900
C718        C  0.09199792  0.41323440  0.13972031    -0.20900
C719        C  0.12022253  0.45682368  0.15270055    -0.07400
C720        C  0.16340922  0.48496176  0.13937722     0.13400
C721        C  0.17611648  0.46935331  0.11324840    -0.20900
C722        C  0.14736873  0.42635222  0.09995235    -0.07400
C723        C  0.10497077  0.39757747  0.11382538     0.13400
C724        C  0.07266364  0.35078496  0.10111925    -0.24300
H725        H  0.05902173  0.39103841  0.14970006     0.14700
H726        H  0.20878853  0.49135636  0.10271326     0.14700
C727        C  0.19680032  0.53123369  0.15215920    -0.24200
H728        H  0.04017320  0.33391596  0.11387323     0.04900
H729        H  0.08712725  0.32880257  0.10376648     0.08200
H730        H  0.06587194  0.35326214  0.07599705     0.08200
H731        H  0.20182883  0.52863816  0.17759813     0.08200
H732        H  0.18504278  0.55514791  0.14765698     0.08200
H733        H  0.22999487  0.54601869  0.14054685     0.04900
C734        C  0.12550632  0.41807764  0.39314021    -0.20900
C735        C  0.15316136  0.45722609  0.41078662    -0.07400
C736        C  0.15689954  0.49900570  0.40222781     0.13400
C737        C  0.13542869  0.50143508  0.37540870    -0.20900
C738        C  0.10983106  0.46325083  0.35654167    -0.07400
C739        C  0.10369492  0.42052103  0.36599400     0.13400
C740        C  0.07538766  0.37771336  0.34740150    -0.24300
H741        H  0.12205959  0.38597930  0.40006476     0.14700
H742        H  0.13858354  0.53363103  0.36937995     0.14700
C743        C  0.18163159  0.54099105  0.42209389    -0.24200
H744        H  0.07533813  0.34793259  0.35785655     0.04900
H745        H  0.08862161  0.38248959  0.32312925     0.08200
H746        H  0.04020117  0.36950298  0.34691002     0.08200
H747        H  0.21757206  0.55221030  0.42366588     0.08200
H748        H  0.16584609  0.53280487  0.44556996     0.08200
H749        H  0.17969304  0.57014226  0.41255061     0.04900
C750        C  0.12660377  0.70920148  0.15100845    -0.20900
C751        C  0.12130956  0.66580493  0.15106228    -0.07400
C752        C  0.13577341  0.65152776  0.12509494     0.13400
C753        C  0.15229370  0.67988797  0.09861959    -0.20900
C754        C  0.15480487  0.72217092  0.09756242    -0.07400
C755        C  0.14380530  0.73800742  0.12474313     0.13400
C756        C  0.15045287  0.78509578  0.12662082    -0.24300
H757        H  0.11646240  0.72025111  0.17147711     0.14700
H758        H  0.16132328  0.66789979  0.07811457     0.14700
C759        C  0.13167915  0.60554192  0.12449697    -0.24200
H760        H  0.14390277  0.79271067  0.15061945     0.04900
H761        H  0.12707634  0.78805758  0.11061468     0.08200
H762        H  0.18558904  0.81114618  0.12041021     0.08200
H763        H  0.09617180  0.57804554  0.12792514     0.08200
H764        H  0.15241216  0.60365224  0.14341635     0.08200
H765        H  0.14345639  0.59946155  0.10190261     0.04900
C766        C  0.10444746  0.63029003  0.37646947    -0.20900
C767        C  0.10684390  0.65700931  0.35073954    -0.07400
C768        C  0.12966842  0.70501793  0.35331646     0.13400
C769        C  0.14843445  0.72518768  0.38224225    -0.20900
C770        C  0.14417488  0.69797467  0.40819728    -0.07400
C771        C  0.12298459  0.65032438  0.40525636     0.13400
C772        C  0.12073317  0.62081355  0.43238259    -0.24300
H773        H  0.08813511  0.59357099  0.37394653     0.14700
H774        H  0.16661251  0.76204197  0.38459885     0.14700
C775        C  0.13511091  0.73473567  0.32550538    -0.24200
H776        H  0.10297405  0.58411229  0.42606091     0.04900
H777        H  0.10272668  0.62484594  0.45233434     0.08200
H778        H  0.15508609  0.63103474  0.43980406     0.08200
H779        H  0.10169222  0.72670297  0.31722216     0.08200
H780        H  0.15265013  0.72850080  0.30626635     0.08200
H781        H  0.15497569  0.77159050  0.33143983     0.04900
C782        C  0.33711477  0.85170781  0.12926502    -0.20900
C783        C  0.34551845  0.89287264  0.14279275    -0.07400
C784        C  0.32437548  0.91507393  0.12961961     0.13400
C785        C  0.29574746  0.89553257  0.10402088    -0.20900
C786        C  0.28852118  0.85544656  0.08994764    -0.07400
C787        C  0.30921440  0.83287801  0.10291043     0.13400
C788        C  0.30134126  0.78856868  0.08969164    -0.24300
H789        H  0.35261601  0.83410370  0.13913052     0.14700
H790        H  0.27975137  0.91277478  0.09426852     0.14700
C791        C  0.33217651  0.96005936  0.14141421    -0.24200
H792        H  0.31787628  0.77431514  0.10397473     0.04900
H793        H  0.31526742  0.79407886  0.06560473     0.08200
H794        H  0.26488202  0.76290083  0.08929779     0.08200
H795        H  0.36830520  0.98647432  0.13959535     0.08200
H796        H  0.32033650  0.95633802  0.16599312     0.08200
H797        H  0.31371023  0.97249640  0.12747858     0.04900
C798        C  0.33135574  0.91114146  0.36088423    -0.20900
C799        C  0.33805644  0.88120277  0.34253350    -0.07400
C800        C  0.31467805  0.83422956  0.35051287     0.13400
C801        C  0.28774422  0.81941483  0.37739796    -0.20900
C802        C  0.28534410  0.85023184  0.39774451    -0.07400
C803        C  0.30581381  0.89656706  0.38855614     0.13400
C804        C  0.30199006  0.93113069  0.40780903    -0.24300
H805        H  0.34799713  0.94693689  0.35427431     0.14700
H806        H  0.27082743  0.78350471  0.38365625     0.14700
C807        C  0.31786641  0.79908106  0.33155329    -0.24200
H808        H  0.31849292  0.96515611  0.39617452     0.04900
H809        H  0.31830090  0.93555627  0.43090581     0.08200
H810        H  0.26614274  0.91957897  0.41107992     0.08200
H811        H  0.35115422  0.80312715  0.33497010     0.08200
H812        H  0.31176403  0.80225144  0.30640205     0.08200
H813        H  0.29273353  0.76374945  0.33918905     0.04900
C814        C  0.58081222  0.94193744  0.11611967    -0.20900
C815        C  0.54620246  0.90981670  0.13579135    -0.07400
C816        C  0.52069399  0.86374770  0.12641505     0.13400
C817        C  0.53241650  0.85066863  0.09883371    -0.20900
C818        C  0.56856609  0.88216540  0.08006939    -0.07400
C819        C  0.59244529  0.92864827  0.08837382     0.13400
C820        C  0.63201562  0.96359873  0.06947244    -0.24300
H821        H  0.59992096  0.97749080  0.12295750     0.14700
H822        H  0.51409089  0.81490200  0.09239561     0.14700
C823        C  0.48274813  0.82749736  0.14598025    -0.24200
H824        H  0.64760298  0.99820731  0.07984131     0.04900
H825        H  0.62135415  0.96540513  0.04527758     0.08200
H826        H  0.65773694  0.95392909  0.06871300     0.08200
H827        H  0.45573823  0.83529012  0.14805096     0.08200
H828        H  0.49513512  0.82580868  0.16960888     0.08200
H829        H  0.46780524  0.79311302  0.13534931     0.04900
C830        C  0.57518938  0.88398151  0.35374463    -0.20900
C831        C  0.54369978  0.89748255  0.35113384    -0.07400
C832        C  0.52352871  0.90181506  0.37852916     0.13400
C833        C  0.53544699  0.89243606  0.40791800    -0.20900
C834        C  0.56609131  0.87766167  0.41042730    -0.07400
C835        C  0.58570744  0.87276125  0.38290602     0.13400
C836        C  0.61802666  0.85611515  0.38408377    -0.24300
H837        H  0.59125950  0.88168466  0.33270368     0.14700
H838        H  0.51966558  0.89521755  0.42899766     0.14700
C839        C  0.49022675  0.91714605  0.37685265    -0.24200
H840        H  0.63168467  0.85645350  0.36051393     0.04900
H841        H  0.60085611  0.82047999  0.39301462     0.08200
H842        H  0.64657197  0.87833566  0.39955951     0.08200
H843        H  0.46076894  0.89251060  0.36285624     0.08200
H844        H  0.50602397  0.95145493  0.36569722     0.08200
H845        H  0.47811018  0.91923211  0.40049704     0.04900
C846        C  0.65576592  0.14563600  0.12357083    -0.20900
C847        C  0.66943921  0.13035984  0.14940214    -0.07400
C848        C  0.71010972  0.13086807  0.14723289     0.13400
C849        C  0.73445643  0.14399985  0.11898578    -0.20900
C850        C  0.71946297  0.15626534  0.09217456    -0.07400
C851        C  0.67990212  0.15811791  0.09498690     0.13400
C852        C  0.66168275  0.17127759  0.06782851    -0.24300
H853        H  0.62483999  0.14565210  0.12524086     0.14700
H854        H  0.76519149  0.14356179  0.11772519     0.14700
C855        C  0.72863771  0.11816255  0.17476005    -0.24200
H856        H  0.63068155  0.17102349  0.07406929     0.04900
H857        H  0.65335629  0.14653524  0.04860534     0.08200
H858        H  0.68702235  0.20629276  0.05997691     0.08200
H859        H  0.70652235  0.08144744  0.18061523     0.08200
H860        H  0.73161150  0.13925153  0.19533345     0.08200
H861        H  0.76239791  0.12398439  0.16966733     0.04900
C862        C  0.67785976  0.15368929  0.36105602    -0.20900
C863        C  0.66031342  0.10828896  0.35277329    -0.07400
C864        C  0.67291886  0.08141851  0.37047722     0.13400
C865        C  0.70177935  0.10093490  0.39649497    -0.20900
C866        C  0.71830004  0.14657566  0.40530460    -0.07400
C867        C  0.70609884  0.17316254  0.38676481     0.13400
C868        C  0.72113661  0.22221146  0.39373985    -0.24300
H869        H  0.66906033  0.17448200  0.34730218     0.14700
H870        H  0.71022307  0.08003278  0.41051519     0.14700
C871        C  0.65513735  0.03199151  0.36288077    -0.24200
H872        H  0.71010764  0.23762954  0.37561400     0.04900
H873        H  0.75809360  0.24298478  0.39426324     0.08200
H874        H  0.70655415  0.22448717  0.41627156     0.08200
H875        H  0.66764088  0.02951778  0.33953882     0.08200
H876        H  0.61794566  0.01263949  0.36305085     0.08200
H877        H  0.66629192  0.01558256  0.38015112     0.04900
C878        C  0.49353562  0.12983330  0.12019579    -0.20900
C879        C  0.47109785  0.12882062  0.14768991    -0.07400
C880        C  0.44200122  0.14576681  0.14715762     0.13400
C881        C  0.43459617  0.16165886  0.11882349    -0.20900
C882        C  0.45571672  0.16143704  0.09079510    -0.07400
C883        C  0.48571552  0.14528567  0.09162030     0.13400
C884        C  0.50724466  0.14133384  0.06234854    -0.24300
H885        H  0.51553515  0.11628416  0.12078145     0.14700
H886        H  0.41117175  0.17345097  0.11843951     0.14700
C887        C  0.41883149  0.14729963  0.17651405    -0.24200
H888        H  0.52848889  0.12660725  0.06707472     0.04900
H889        H  0.52888122  0.17566571  0.05216150     0.08200
H890        H  0.48108412  0.11901911  0.04527915     0.08200
H891        H  0.44417748  0.16777420  0.19459256     0.08200
H892        H  0.39609635  0.11223583  0.18564536     0.08200
H893        H  0.39849394  0.16314093  0.17213875     0.04900
C894        C  0.40864526  0.12197477  0.39096451    -0.20900
C895        C  0.44646586  0.16084033  0.40293700    -0.07400
C896        C  0.48775369  0.17908220  0.38642323     0.13400
C897        C  0.48993988  0.15712837  0.35943661    -0.20900
C898        C  0.45282256  0.11669805  0.34830540    -0.07400
C899        C  0.41102543  0.09955672  0.36410322     0.13400
C900        C  0.36854419  0.05740199  0.35393205    -0.24300
H901        H  0.37713071  0.10800780  0.40343455     0.14700
H902        H  0.52183932  0.17110629  0.34752602     0.14700
C903        C  0.53084574  0.22018743  0.39757363    -0.24200
H904        H  0.33968808  0.04968225  0.36923840     0.04900
H905        H  0.37268873  0.02750413  0.35540106     0.08200
H906        H  0.35975047  0.06241938  0.32987672     0.08200
H907        H  0.54009254  0.21291890  0.42080162     0.08200
H908        H  0.52723127  0.25037376  0.39895314     0.08200
H909        H  0.55931083  0.22932512  0.38146926     0.04900
C910        C  0.45932014  0.09203073  0.82216960     0.41900
N911        N  0.49428554  0.08094607  0.78446778     0.00800
C912        C  0.40148830  0.89417921  0.68502387    -0.07100
H913        H  0.40115828  0.85715852  0.80557689     0.06300
C914        C  0.57039777  0.95024963  0.80302544    -0.07400
Co915      Co  0.43039721  0.99999705  0.74627827     0.74200
N916        N  0.41819504  0.91641069  0.77795600    -0.26600
Co917      Co  0.46348457  0.92098999  0.74432875     0.74100
C918        C  0.53580854  0.91101215  0.81997755     0.42000
N919        N  0.59604372  0.05523734  0.78317790     0.00400
N920        N  0.50671525  0.92291629  0.77946844     0.00500
N921        N  0.38186551  0.94724229  0.68747439    -0.47500
H922        H  0.39228802  0.02827170  0.80676011     0.06300
N923        N  0.40535966  0.94640206  0.77850405     0.00800
N924        N  0.50928991  0.92859788  0.70975284     0.00500
C925        C  0.53848301  0.92371969  0.66686004     0.42100
N926        N  0.58358109  0.08548458  0.78543715    -0.26100
C927        C  0.43733258  0.06112863  0.68996433    -0.07000
N928        N  0.49986959  0.10850635  0.80804635    -0.47200
N929        N  0.50013475  0.90450314  0.68372866    -0.47400
C930        C  0.47235467  0.10345151  0.67571795     0.41900
N931        N  0.40937778  0.95226048  0.71045387     0.00800
N932        N  0.58762214  0.09362117  0.71621237    -0.26100
N933        N  0.45231215  0.04732255  0.78207714    -0.26600
N934        N  0.59965945  0.06300059  0.71524071     0.00400
H935        H  0.60671632  0.15373470  0.68786676     0.06300
H936        H  0.60717954  0.98600782  0.67907843     0.06300
N937        N  0.42133394  0.92159022  0.70973156    -0.26600
N938        N  0.54925482  0.95572855  0.77888844    -0.26300
N939        N  0.49945246  0.08759758  0.71547522     0.00800
C940        C  0.36764461  0.89922100  0.81555578     0.42200
C941        C  0.60250829  0.11019436  0.81143127    -0.07500
N942        N  0.55127740  0.96261029  0.71072171    -0.26300
H943        H  0.60518853  0.97223510  0.80874496     0.06300
N944        N  0.37538420  0.93750499  0.80063159    -0.47500
H945        H  0.59874740  0.13785855  0.81955760     0.06300
C946        C  0.63753707  0.10955648  0.67791163     0.42000
C947        C  0.42784736  0.05113947  0.80458527    -0.07000
Co948      Co  0.54187415  0.08838175  0.75062251     0.73800
N949        N  0.62268958  0.05778676  0.80610085    -0.47200
C950        C  0.37530809  0.91153738  0.67007638     0.42300
N951        N  0.51011629  0.11792729  0.69252798    -0.47200
Co952      Co  0.57476028  0.00903800  0.74687293     0.73900
C953        C  0.57250874  0.96204141  0.68482085    -0.07500
C954        C  0.39653429  0.88536572  0.80063983    -0.07100
N955        N  0.45722024  0.05384917  0.71419001    -0.26600
N956        N  0.49685883  0.89552971  0.80426046    -0.47400
H957        H  0.40476444  0.86557315  0.67864297     0.06300
C958        C  0.60944982  0.12438967  0.69304374    -0.07500
Cl959      Cl  0.50257877  0.00467004  0.74709134    -0.50500
C960        C  0.62829330  0.09127632  0.82527775     0.42000
H961        H  0.40280930  0.03933344  0.68313638     0.06300
N962        N  0.62919159  0.07128330  0.69293124    -0.47200
C963        C  0.08993796  0.63778579  0.81991307     0.41900
N964        N  0.07536723  0.59021692  0.78317289     0.00800
C965        C  0.89307614  0.48296575  0.68457649    -0.07100
H966        H  0.85418611  0.45057658  0.80484781     0.06300
C967        C  0.94460338  0.37738779  0.80753371    -0.07400
Co968      Co  0.99429932  0.56989736  0.74635522     0.74200
N969        N  0.91247336  0.49539936  0.77815517    -0.26600
Co970      Co  0.91852085  0.45346295  0.74502846     0.74100
C971        C  0.90298783  0.37026467  0.82071404     0.42000
N972        N  0.05171944  0.46233386  0.78742944     0.00400
N973        N  0.91966232  0.41286237  0.78039240     0.00500
N974        N  0.94144503  0.55935091  0.68490192    -0.47500
H975        H  0.02739003  0.64176286  0.80940737     0.06300
N976        N  0.94151808  0.53971328  0.77913742     0.00800
N977        N  0.92718288  0.41351780  0.71167159     0.00500
C978        C  0.92447297  0.37709873  0.66999551     0.42100
N979        N  0.08106333  0.50665798  0.78699459    -0.26100
C980        C  0.05536189  0.62818441  0.69130579    -0.07000
N981        N  0.10414444  0.61260131  0.80584307    -0.47200
N982        N  0.90463937  0.39662093  0.68519950    -0.47400
C983        C  0.09756948  0.63747797  0.67785400     0.41900
N984        N  0.94726580  0.53946810  0.70975188     0.00800
N985        N  0.08699361  0.50626114  0.71850585    -0.26100
N986        N  0.04235272  0.59841160  0.78189008    -0.26600
N987        N  0.05835248  0.46194850  0.71933049     0.00400
H988        H  0.14429274  0.54913183  0.68997156     0.06300
H989        H  0.98522758  0.37292560  0.68505815     0.06300
N990        N  0.91919044  0.49494223  0.70986696    -0.26600
N991        N  0.95251945  0.40469425  0.78274912    -0.26300
N992        N  0.07977440  0.58976013  0.71552863     0.00800
C993        C  0.89458426  0.52783405  0.81665653     0.42200
C994        C  0.10836961  0.51687601  0.81159699    -0.07500
N995        N  0.96052756  0.40615308  0.71450832    -0.26300
H996        H  0.96567447  0.36486327  0.81555691     0.06300
N997        N  0.93230993  0.56019405  0.80175171    -0.47500
H998        H  0.13622506  0.55053272  0.81709577     0.06300
C999        C  0.10355606  0.47060112  0.68176813     0.42000
C1000       C  0.04849441  0.62800387  0.80468014    -0.07000
Co1001     Co  0.08171416  0.54878866  0.75097347     0.73800
N1002       N  0.05781132  0.44098467  0.81116103    -0.47200
C1003       C  0.90843301  0.52533858  0.66763272     0.42300
N1004       N  0.11100986  0.61276993  0.69401332    -0.47200
Co1005     Co  0.00563315  0.43278582  0.75121409     0.73900
C1006       C  0.96122377  0.38314202  0.68949028    -0.07500
C1007       C  0.88164379  0.48463996  0.80069156    -0.07100
N1008       N  0.04691308  0.59817312  0.71436015    -0.26600
N1009       N  0.88922188  0.39290840  0.80272412    -0.47400
H1010       H  0.86604121  0.44882543  0.67934788     0.06300
C1011       C  0.11696830  0.51536261  0.69555961    -0.07500
Cl1012     Cl  0.00010488  0.50137001  0.74851393    -0.50500
C1013       C  0.09281727  0.47328770  0.82772610     0.42000
H1014       H  0.03488664  0.64219972  0.68514665     0.06300
N1015       N  0.06699829  0.43969326  0.69803717    -0.47200
C1016       C  0.38073975  0.44292705  0.83764204     0.41900
N1017       N  0.41813724  0.47579665  0.79562946     0.00800
C1018       C  0.50856675  0.40501638  0.68461907    -0.07100
H1019       H  0.56140940  0.39856244  0.80103623     0.06300
C1020       C  0.62225923  0.55978527  0.80989709    -0.07400
Co1021     Co  0.43396784  0.41362148  0.75664320     0.74200
N1022       N  0.51229494  0.41022541  0.77973045    -0.26600
Co1023     Co  0.54787912  0.45772258  0.74592987     0.74100
C1024       C  0.63111816  0.52455708  0.82111476     0.42000
N1025       N  0.54154139  0.58519929  0.78878626     0.00400
N1026       N  0.59148106  0.50127149  0.77951552     0.00500
N1027       N  0.43455658  0.37691698  0.69240907    -0.47500
H1028       H  0.37738948  0.37574415  0.82572682     0.06300
N1029       N  0.46944042  0.39381367  0.78497026     0.00800
N1030       N  0.58403588  0.50588692  0.71219454     0.00500
C1031       C  0.62197771  0.53964974  0.67135034     0.42100
N1032       N  0.49819365  0.56920051  0.79035058    -0.26100
C1033       C  0.36590113  0.40719665  0.70851023    -0.07000
N1034       N  0.40066864  0.48261840  0.82114823    -0.47200
N1035       N  0.60147585  0.49950725  0.68670845    -0.47400
C1036       C  0.35291762  0.43786305  0.69514227     0.41900
N1037       N  0.45834540  0.39827569  0.71743030     0.00800
N1038       N  0.49122891  0.56802677  0.72148210    -0.26100
N1039       N  0.41150724  0.43412525  0.79479827    -0.26600
N1040       N  0.53504859  0.58590725  0.72052584     0.00400
H1041       H  0.44515132  0.56946540  0.68875476     0.06300
H1042       H  0.62854864  0.60765130  0.68500911     0.06300
N1043       N  0.50168852  0.41556031  0.71324885    -0.26600
N1044       N  0.59770969  0.54234013  0.78371607    -0.26300
N1045       N  0.40714041  0.47491116  0.72741809     0.00800
C1046       C  0.48892255  0.36100402  0.81834347     0.42200
C1047       C  0.49009001  0.58898268  0.81416734    -0.07500
N1048       N  0.59244387  0.54784990  0.71472422    -0.26300
H1049       H  0.63197589  0.59243351  0.82012702     0.06300
N1050       N  0.45386149  0.36410853  0.80846444    -0.47500
H1051       H  0.45758966  0.58299213  0.82084269     0.06300
C1052       C  0.52123551  0.60885218  0.67695710     0.42000
C1053       C  0.38802874  0.41074497  0.82026254    -0.07000
Co1054     Co  0.45306313  0.52279172  0.75862985     0.73800
N1055       N  0.56441076  0.61617324  0.81044828    -0.47200
C1056       C  0.46431873  0.38080175  0.67083220     0.42300
N1057       N  0.37998651  0.47937993  0.70806047    -0.47200
Co1058     Co  0.56779360  0.56667767  0.75231629     0.73900
C1059       C  0.61643713  0.57201700  0.68969817    -0.07500
C1060       C  0.52748447  0.39145516  0.79967220    -0.07100
N1061       N  0.39941243  0.43307872  0.72794426    -0.26600
N1062       N  0.61052416  0.48942070  0.80124657    -0.47400
H1063       H  0.54058465  0.41521356  0.67411460     0.06300
C1064       C  0.47927907  0.58087462  0.69504138    -0.07500
Cl1065     Cl  0.50060811  0.49028485  0.75358617    -0.50500
C1066       C  0.53393527  0.61994813  0.82742979     0.42000
H1067       H  0.35216839  0.37109453  0.70494847     0.06300
N1068       N  0.55367589  0.60990999  0.69469801    -0.47200
O1069       O  0.76659675  0.46146716  0.98902379    -0.80700
O1070       O  0.76206166  0.59265108  0.56045463    -0.80700
O1071       O  0.80608590  0.53177637  0.53901711    -0.80700
O1072       O  0.68065673  0.51417120  0.50136701    -0.80700
O1073       O  0.84230756  0.60072976  0.55649184    -0.80800
O1074       O  0.72139982  0.49488378  0.02509906    -0.80700
O1075       O  0.71099520  0.59370837  0.53133009    -0.80700
O1076       O  0.84018449  0.51077919  0.99328722    -0.80700
C1077       C  0.80666691  0.46902066  0.99257336     1.09000
C1078       C  0.72317003  0.58568544  0.55715247     1.08900
C1079       C  0.82789079  0.55924444  0.56077332     1.09000
C1080       C  0.68320169  0.48895674  0.01928504     1.08900
O1081       O  0.71313336  0.49860566  0.95643192    -0.80700
O1082       O  0.87068228  0.66575846  0.50835937    -0.80800
O1083       O  0.84947117  0.58571957  0.95528110    -0.80700
O1084       O  0.75543710  0.64595511  0.47737920    -0.80700
O1085       O  0.79232061  0.67108959  0.52145603    -0.80800
O1086       O  0.79036325  0.52544548  0.94520843    -0.80700
O1087       O  0.73110074  0.56943764  0.94674887    -0.80700
O1088       O  0.88267322  0.60863078  0.00976992    -0.80700
Co1089     Co  0.76326810  0.51771261  0.98856854     1.51500
Co1090     Co  0.81432723  0.62920036  0.53332552     1.51700
Co1091     Co  0.82216640  0.55728121  0.99680177     1.51600
Co1092     Co  0.72347163  0.57996257  0.48873783     1.51500
O1093       O  0.78359323  0.58389721  0.49685239    -1.42600
C1094       C  0.71080559  0.52796206  0.93901240     1.08900
C1095       C  0.89759751  0.65117478  0.50566591     1.09000
C1096       C  0.82734273  0.55670660  0.93526756     1.08900
C1097       C  0.76991850  0.67477693  0.49952227     1.08900
O1098       O  0.71578736  0.22222466  0.98603969    -0.80700
O1099       O  0.84625388  0.22978570  0.56376248    -0.80700
O1100       O  0.73911618  0.17940348  0.54000729    -0.80700
O1101       O  0.85947784  0.31164273  0.49709405    -0.80700
O1102       O  0.77065317  0.14659788  0.56242766    -0.80800
O1103       O  0.79502513  0.27296065  0.02172838    -0.80700
O1104       O  0.89986034  0.27771259  0.53197414    -0.80700
O1105       O  0.68567835  0.14603924  0.98956713    -0.80700
C1106       C  0.68126808  0.18127548  0.98746660     1.09000
C1107       C  0.87923143  0.26904987  0.55801603     1.08900
C1108       C  0.74442925  0.16149816  0.56405197     1.09000
C1109       C  0.82672064  0.31102550  0.01151848     1.08900
O1110       O  0.80294586  0.27328183  0.95332744    -0.80700
O1111       O  0.80858427  0.11671010  0.51707015    -0.80800
O1112       O  0.75015117  0.13689547  0.95405483    -0.80700
O1113       O  0.89075211  0.21768647  0.47914783    -0.80700
O1114       O  0.89447772  0.19921817  0.52674047    -0.80800
O1115       O  0.75110015  0.19718497  0.94642105    -0.80700
O1116       O  0.85225143  0.25365680  0.94457093    -0.80700
O1117       O  0.73793339  0.10221916  0.01021476    -0.80700
Co1118     Co  0.77253423  0.22617915  0.98832821     1.51500
Co1119     Co  0.82907212  0.17473045  0.53975919     1.51700
Co1120     Co  0.74908314  0.16361159  0.99557208     1.51600
Co1121     Co  0.87183858  0.26041903  0.48878699     1.51500
O1122       O  0.81323812  0.20161635  0.50198119    -1.42600
C1123       C  0.83144601  0.27217717  0.93521841     1.08900
C1124       C  0.76717280  0.08823666  0.51215911     1.09000
C1125       C  0.74272656  0.16024189  0.93554243     1.08900
C1126       C  0.91375094  0.21570892  0.50053514     1.08900
O1127       O  0.29918835  0.78791946  0.98827112    -0.80700
O1128       O  0.14992429  0.77433726  0.56020699    -0.80700
O1129       O  0.26929415  0.82281858  0.53857725    -0.80700
O1130       O  0.14560978  0.67127021  0.50613349    -0.80700
O1131       O  0.23156777  0.85334811  0.55652948    -0.80800
O1132       O  0.21911214  0.70737683  0.99913235    -0.80700
O1133       O  0.18581525  0.74108892  0.54667417    -0.80700
O1134       O  0.33023425  0.86248003  0.99096712    -0.80700
C1135       C  0.33424318  0.82782382  0.98789877     1.09000
C1136       C  0.16502586  0.74910193  0.56725004     1.08900
C1137       C  0.26086954  0.84220823  0.56031993     1.09000
C1138       C  0.18187627  0.66978332  0.00247129     1.08900
O1139       O  0.20458515  0.73024682  0.94272509    -0.80700
O1140       O  0.20298659  0.88178839  0.50268994    -0.80800
O1141       O  0.26442503  0.85589419  0.95123857    -0.80700
O1142       O  0.10611262  0.72590486  0.51298625    -0.80700
O1143       O  0.11850347  0.79578203  0.50565538    -0.80800
O1144       O  0.26057192  0.79349131  0.93866157    -0.80700
O1145       O  0.14362114  0.72514248  0.95879536    -0.80700
O1146       O  0.27323211  0.89575018  0.00692915    -0.80700
Co1147     Co  0.23452754  0.76709000  0.97960484     1.51500
Co1148     Co  0.17709813  0.82531177  0.52895045     1.51700
Co1149     Co  0.26564318  0.83670792  0.99518006     1.51600
Co1150     Co  0.16616821  0.73508426  0.50246123     1.51500
O1151       O  0.20059808  0.79985209  0.49596561    -1.42600
C1152       C  0.16522098  0.71977320  0.93744533     1.08900
C1153       C  0.24495776  0.91021087  0.50383064     1.09000
C1154       C  0.26819925  0.83212872  0.93050999     1.08900
C1155       C  0.09171882  0.75236507  0.50623344     1.08900
O1156       O  0.51939623  0.82143080  0.00145037    -0.80700
O1157       O  0.59098422  0.70577428  0.53405287    -0.80700
O1158       O  0.49679207  0.72565727  0.01043209    -0.80700
O1159       O  0.58056736  0.82492541  0.56186938    -0.80700
O1160       O  0.52401591  0.68513134  0.49274248    -0.80800
O1161       O  0.59723100  0.88078073  0.52930261    -0.80700
O1162       O  0.57798004  0.74800537  0.56546006    -0.80700
O1163       O  0.48132081  0.77230361  0.96451351    -0.80700
C1164       C  0.48459827  0.80197188  0.98355767     1.09000
C1165       C  0.57615949  0.71125818  0.55996600     1.08900
C1166       C  0.49281941  0.68748319  0.00494802     1.09000
C1167       C  0.58297096  0.86198405  0.55579529     1.08900
O1168       O  0.65075195  0.87241846  0.98181168    -0.80700
O1169       O  0.59394248  0.75128101  0.94791056    -0.80800
O1170       O  0.56645045  0.82165195  0.94442581    -0.80700
O1171       O  0.66690657  0.78572461  0.53729894    -0.80700
O1172       O  0.65501589  0.77349704  0.48778191    -0.80800
O1173       O  0.58261059  0.88718240  0.96515275    -0.80700
O1174       O  0.66789023  0.87041721  0.53150628    -0.80700
O1175       O  0.52432913  0.72993686  0.94704494    -0.80700
Co1176     Co  0.58614839  0.84284662  0.99067031     1.51500
Co1177     Co  0.59067323  0.73227325  0.49084430     1.51700
Co1178     Co  0.53337331  0.77477420  0.98048721     1.51600
Co1179     Co  0.62143529  0.80639473  0.54636298     1.51500
O1180       O  0.58599474  0.78591368  0.50539839    -1.42600
C1181       C  0.67588110  0.89151448  0.50523994     1.08900
C1182       C  0.55749460  0.73205940  0.93369561     1.09000
C1183       C  0.57250215  0.86189096  0.94119885     1.08900
C1184       C  0.67753401  0.77591631  0.51103474     1.08900
O1185       O  0.16516645  0.42486962  0.95646393    -0.80700
O1186       O  0.27902084  0.37945598  0.52496349    -0.80700
O1187       O  0.24976159  0.41847210  0.95134990    -0.80700
O1188       O  0.13526046  0.33201851  0.50186436    -0.80700
O1189       O  0.30906461  0.44220209  0.98156390    -0.80800
O1190       O  0.11596266  0.37955176  0.01106902    -0.80700
O1191       O  0.21104645  0.32949340  0.50783149    -0.80700
O1192       O  0.22767953  0.48198053  0.93716024    -0.80700
C1193       C  0.18640445  0.45400935  0.93384309     1.09000
C1194       C  0.25137125  0.34140808  0.51233355     1.08900
C1195       C  0.28977593  0.42806420  0.95501049     1.09000
C1196       C  0.10494637  0.34080704  0.50563328     1.08900
O1197       O  0.18548402  0.44770278  0.55339928    -0.80700
O1198       O  0.29754747  0.50377120  0.52446822    -0.80800
O1199       O  0.22006867  0.50391866  0.99609789    -0.80700
O1200       O  0.22387772  0.36521676  0.57008091    -0.80700
O1201       O  0.26730515  0.43930469  0.56726192    -0.80800
O1202       O  0.14644983  0.46684500  0.00132574    -0.80700
O1203       O  0.15140660  0.37452160  0.56467431    -0.80700
O1204       O  0.29646317  0.50828813  0.97572758    -0.80700
Co1205     Co  0.17678639  0.43517854  0.00527159     1.51500
Co1206     Co  0.28387643  0.44059521  0.52355868     1.51700
Co1207     Co  0.23213677  0.45623396  0.97462871     1.51600
Co1208     Co  0.18226654  0.35391988  0.53397102     1.51500
O1209       O  0.21990342  0.41591663  0.51122935    -1.42600
C1210       C  0.16348458  0.41530540  0.57244834     1.08900
C1211       C  0.31573404  0.52555638  0.00130791     1.09000
C1212       C  0.18339697  0.50401355  0.00023634     1.08900
C1213       C  0.25063038  0.40305204  0.58293401     1.08900
O1214       O  0.48456591  0.15891112  0.98878173    -0.80700
O1215       O  0.40663493  0.29187073  0.53206462    -0.80700
O1216       O  0.50543803  0.28182525  0.02559512    -0.80700
O1217       O  0.39947305  0.15906830  0.55752647    -0.80700
O1218       O  0.48650190  0.32519024  0.50342080    -0.80800
O1219       O  0.46703814  0.19317581  0.53816320    -0.80700
O1220       O  0.40511928  0.23849895  0.56155015    -0.80700
O1221       O  0.53389114  0.23433879  0.98770554    -0.80700
C1222       C  0.52546355  0.19310883  0.98822957     1.09000
C1223       C  0.41404404  0.27858841  0.55789349     1.08900
C1224       C  0.51129998  0.32115330  0.02013144     1.09000
C1225       C  0.44027460  0.17179448  0.56048804     1.08900
O1226       O  0.39050669  0.11691130  0.00912203    -0.80700
O1227       O  0.43751556  0.27491705  0.94682911    -0.80800
O1228       O  0.47329908  0.21158491  0.94650927    -0.80700
O1229       O  0.33180648  0.21239103  0.51975557    -0.80700
O1230       O  0.36200207  0.24346778  0.47486708    -0.80800
O1231       O  0.41083502  0.15389261  0.95435721    -0.80700
O1232       O  0.33629989  0.13234104  0.50778588    -0.80700
O1233       O  0.50497944  0.29093983  0.95906594    -0.80700
Co1234     Co  0.44049246  0.17821970  0.99541022     1.51500
Co1235     Co  0.42342265  0.28107592  0.48930231     1.51700
Co1236     Co  0.48152516  0.23880727  0.98982331     1.51600
Co1237     Co  0.37099862  0.18767077  0.53375870     1.51500
O1238       O  0.41818619  0.22049480  0.49883536    -1.42600
C1239       C  0.34955415  0.10412179  0.50713450     1.08900
C1240       C  0.47803552  0.29200748  0.93968244     1.09000
C1241       C  0.44160938  0.17596361  0.93549334     1.08900
C1242       C  0.33289717  0.23435827  0.49529037     1.08900
C1243       C  0.26622975  0.23921147  0.50939885    -0.20900
C1244       C  0.30800091  0.25870939  0.49432078    -0.07400
C1245       C  0.32836760  0.30427299  0.48248685     0.13400
C1246       C  0.30761992  0.32925639  0.48768521    -0.20900
C1247       C  0.26711644  0.31043063  0.50391939    -0.07400
C1248       C  0.24523088  0.26439066  0.51402757     0.13400
C1249       C  0.20103849  0.24250899  0.53110890    -0.24300
H1250       H  0.25065617  0.20463518  0.51844615     0.14700
H1251       H  0.32383945  0.36448940  0.47979545     0.14700
C1252       C  0.37319392  0.32856945  0.46590648    -0.24200
H1253       H  0.18945241  0.20682559  0.53824815     0.04900
H1254       H  0.17480898  0.24101482  0.02084622     0.08200
H1255       H  0.20429096  0.26219469  0.55255635     0.08200
H1256       H  0.36504637  0.30380433  0.94310584     0.08200
H1257       H  0.39969080  0.33128904  0.48161104     0.08200
H1258       H  0.38335061  0.36393254  0.45883551     0.04900
C1259       C  0.39558476  0.56481843  0.01592524    -0.20900
C1260       C  0.36031568  0.56772837  0.00270892    -0.07400
C1261       C  0.36718328  0.61152207  0.49252382     0.13400
C1262       C  0.41058035  0.64964982  0.49517095    -0.20900
C1263       C  0.44751946  0.64584867  0.00663952    -0.07400
C1264       C  0.43914602  0.60311631  0.01779102     0.13400
C1265       C  0.47458451  0.59636435  0.03235968    -0.24300
H1266       H  0.38920382  0.53215481  0.02447196     0.14700
H1267       H  0.41674513  0.68274697  0.48796396     0.14700
C1268       C  0.32992603  0.61799714  0.48196173    -0.24200
H1269       H  0.46415432  0.58251616  0.05649490     0.04900
H1270       H  0.50604758  0.62593270  0.53168753     0.08200
H1271       H  0.47869908  0.57164073  0.01826353     0.08200
H1272       H  0.30533457  0.60740536  0.50137669     0.08200
H1273       H  0.31673005  0.59324455  0.95773495     0.08200
H1274       H  0.34204411  0.65422494  0.47610942     0.04900
C1275       C  0.28268709  0.03369907  0.48661858    -0.20900
C1276       C  0.31708194  0.05483956  0.50891939    -0.07400
C1277       C  0.32187215  0.02810053  0.53210598     0.13400
C1278       C  0.29510221  0.98088408  0.53059288    -0.20900
C1279       C  0.26334655  0.95936131  0.50691514    -0.07400
C1280       C  0.25543124  0.98574604  0.48540300     0.13400
C1281       C  0.22078710  0.96206586  0.96124045    -0.24300
H1282       H  0.27868329  0.05309220  0.97040892     0.14700
H1283       H  0.30033686  0.96022283  0.54750287     0.14700
C1284       C  0.35486478  0.04882355  0.55871995    -0.24200
H1285       H  0.21991361  0.98778889  0.94579477     0.04900
H1286       H  0.18666677  0.94247804  0.47190029     0.08200
H1287       H  0.22788236  0.93999402  0.94652684     0.08200
H1288       H  0.34804085  0.07217073  0.57218094     0.08200
H1289       H  0.38950790  0.06638965  0.05100324     0.08200
H1290       H  0.35219550  0.02239090  0.57529937     0.04900
C1291       C  0.21262406  0.58236350  0.98302135    -0.20900
C1292       C  0.18434677  0.54690158  0.00330709    -0.07400
C1293       C  0.15579978  0.55212086  0.02414548     0.13400
C1294       C  0.15529559  0.59265609  0.02330242    -0.20900
C1295       C  0.18331223  0.62796197  0.00274209    -0.07400
C1296       C  0.21298761  0.62315091  0.98255232     0.13400
C1297       C  0.24406567  0.65966923  0.95945528    -0.24300
H1298       H  0.23360348  0.57753331  0.96675367     0.14700
H1299       H  0.13089119  0.59920700  0.54105200     0.14700
C1300       C  0.12682512  0.51587127  0.04786634    -0.24200
H1301       H  0.26226649  0.64809084  0.94449753     0.04900
H1302       H  0.27600241  0.69393426  0.48263676     0.08200
H1303       H  0.22462025  0.66861876  0.94361532     0.08200
H1304       H  0.14095307  0.50715396  0.56664191     0.08200
H1305       H  0.10071774  0.48466094  0.03591322     0.08200
H1306       H  0.10388023  0.52872745  0.56554793     0.04900
C1307       C  0.42279944  0.80538753  0.95767152    -0.20900
C1308       C  0.44919372  0.81396002  0.98455816    -0.07400
C1309       C  0.43957815  0.83302050  0.51162082     0.13400
C1310       C  0.40406879  0.84128176  0.51110928    -0.20900
C1311       C  0.37784305  0.83091216  0.98417869    -0.07400
C1312       C  0.38743116  0.81363464  0.95710580     0.13400
C1313       C  0.36054071  0.80379975  0.92746664    -0.24300
H1314       H  0.42956125  0.79173277  0.93700107     0.14700
H1315       H  0.39504184  0.85197124  0.53226223     0.14700
C1316       C  0.46549002  0.84172319  0.54142143    -0.24200
H1317       H  0.37377545  0.79226887  0.90826687     0.04900
H1318       H  0.36195282  0.83535415  0.91936498     0.08200
H1319       H  0.32528969  0.77642427  0.93174054     0.08200
H1320       H  0.50087732  0.86887982  0.53726790     0.08200
H1321       H  0.46338421  0.80977452  0.54939022     0.08200
H1322       H  0.45232235  0.85348849  0.56050749     0.04900
C1323       C  0.73623301  0.01771848  0.48033777    -0.20900
C1324       C  0.75112296  0.03898386  0.50941833    -0.07400
C1325       C  0.74779100  0.01242413  0.53577827     0.13400
C1326       C  0.72741700  0.96478841  0.53278330    -0.20900
C1327       C  0.70874100  0.94234941  0.50419328    -0.07400
C1328       C  0.71563784  0.97000606  0.47719391     0.13400
C1329       C  0.70019031  0.95041342  0.94388785    -0.24300
H1330       H  0.73963539  0.03852899  0.46007954     0.14700
H1331       H  0.72336922  0.94477805  0.55362754     0.14700
C1332       C  0.76332147  0.03403304  0.56751932    -0.24200
H1333       H  0.71199025  0.97719098  0.92538279     0.04900
H1334       H  0.66429619  0.93065050  0.44336449     0.08200
H1335       H  0.71394928  0.92840377  0.93843169     0.08200
H1336       H  0.74468946  0.05083613  0.57443411     0.08200
H1337       H  0.80220660  0.06228474  0.06375163     0.08200
H1338       H  0.75763055  0.00841302  0.58585786     0.04900
C1339       C  0.98989806  0.23505613  0.51833045    -0.20900
C1340       C  0.96374340  0.24359632  0.49765912    -0.07400
C1341       C  0.98599081  0.28248534  0.47719831     0.13400
C1342       C  0.03231394  0.31270853  0.47989883    -0.20900
C1343       C  0.05757816  0.30493541  0.50145078    -0.07400
C1344       C  0.03663577  0.26484547  0.52007317     0.13400
C1345       C  0.06327139  0.25438835  0.54268940    -0.24300
H1346       H  0.97357346  0.20554183  0.53373737     0.14700
H1347       H  0.04900074  0.34331531  0.46547803     0.14700
C1348       C  0.96186323  0.29458826  0.45329939    -0.24200
H1349       H  0.04159353  0.22228719  0.55598714     0.04900
H1350       H  0.08057387  0.28255382  0.55974721     0.08200
H1351       H  0.08777352  0.24915723  0.02954328     0.08200
H1352       H  0.93845266  0.30232115  0.46526548     0.08200
H1353       H  0.94429359  0.26676649  0.93512178     0.08200
H1354       H  0.98527191  0.32542162  0.43935502     0.04900
C1355       C  0.56097336  0.14857956  0.97534463    -0.20900
C1356       C  0.56323863  0.18646338  0.98984780    -0.07400
C1357       C  0.60418925  0.21703763  0.50549617     0.13400
C1358       C  0.63942840  0.20952278  0.50661120    -0.20900
C1359       C  0.63799853  0.17757753  0.98951192    -0.07400
C1360       C  0.59860840  0.14394792  0.97470794     0.13400
C1361       C  0.59688707  0.10502987  0.95725113    -0.24300
H1362       H  0.53049535  0.12380684  0.96342511     0.14700
H1363       H  0.66905578  0.23388716  0.51886627     0.14700
C1364       C  0.61015385  0.25869772  0.52227479    -0.24200
H1365       H  0.56365535  0.08276230  0.94627679     0.04900
H1366       H  0.60317071  0.08373445  0.97366032     0.08200
H1367       H  0.62266004  0.11857406  0.93842079     0.08200
H1368       H  0.58192027  0.24932144  0.53856671     0.08200
H1369       H  0.61276489  0.28415516  0.50486203     0.08200
H1370       H  0.64124095  0.27585540  0.53644149     0.04900
C1371       C  0.97032970  0.66517336  0.48628205    -0.20900
C1372       C  0.94696994  0.68268455  0.50161894    -0.07400
C1373       C  0.97188598  0.72663622  0.51519261     0.13400
C1374       C  0.01930512  0.75026240  0.51468427    -0.20900
C1375       C  0.04244243  0.73104840  0.50099092    -0.07400
C1376       C  0.01718236  0.68867246  0.48531899     0.13400
C1377       C  0.03889745  0.66774752  0.46692744    -0.24300
H1378       H  0.95167318  0.63170845  0.47575560     0.14700
H1379       H  0.03829738  0.78274240  0.52651707     0.14700
C1380       C  0.94894648  0.74760676  0.53183220    -0.24200
H1381       H  0.01379057  0.63609874  0.45475236     0.04900
H1382       H  0.05810645  0.65820662  0.48254771     0.08200
H1383       H  0.05970626  0.68396958  0.95340133     0.08200
H1384       H  0.92803003  0.72495228  0.55134505     0.08200
H1385       H  0.92925936  0.75443638  0.01131201     0.08200
H1386       H  0.97344018  0.78140690  0.54185444     0.04900
C1387       C  0.72616225  0.74858481  0.53415495    -0.20900
C1388       C  0.71004168  0.75937455  0.50741637    -0.07400
C1389       C  0.72032547  0.74790722  0.47759371     0.13400
C1390       C  0.74180322  0.72259785  0.47585115    -0.20900
C1391       C  0.75491277  0.70885911  0.50269250    -0.07400
C1392       C  0.74829052  0.72380709  0.53235724     0.13400
C1393       C  0.76225385  0.71221103  0.56275934    -0.24300
H1394       H  0.71958448  0.75776379  0.55689861     0.14700
H1395       H  0.74724385  0.71222164  0.45314701     0.14700
C1396       C  0.70850076  0.76130886  0.44697908    -0.24200
H1397       H  0.75400049  0.72621208  0.58335106     0.04900
H1398       H  0.79901248  0.72692027  0.56281311     0.08200
H1399       H  0.74455034  0.67472107  0.56599185     0.08200
H1400       H  0.72976044  0.80724051  0.95045562     0.08200
H1401       H  0.67178038  0.74198613  0.44367657     0.08200
H1402       H  0.73450009  0.76488631  0.92935504     0.04900
C1403       C  0.85162102  0.38829865  0.98886931    -0.20900
C1404       C  0.82377487  0.35350824  0.01056164    -0.07400
C1405       C  0.79134987  0.35852020  0.02710242     0.13400
C1406       C  0.78663217  0.39636689  0.02056289    -0.20900
C1407       C  0.81352604  0.42990805  0.99812636    -0.07400
C1408       C  0.84689020  0.42598583  0.98247007     0.13400
C1409       C  0.87630118  0.46038040  0.95788531    -0.24300
H1410       H  0.87655755  0.38541039  0.97574564     0.14700
H1411       H  0.76342061  0.40111338  0.53155982     0.14700
C1412       C  0.76335877  0.32668426  0.55127431    -0.24200
H1413       H  0.89900846  0.45091913  0.94664156     0.04900
H1414       H  0.90295578  0.49796236  0.47141017     0.08200
H1415       H  0.85520853  0.46254584  0.93930062     0.08200
H1416       H  0.78326659  0.32205541  0.56959898     0.08200
H1417       H  0.73933606  0.29094206  0.04123226     0.08200
H1418       H  0.74245530  0.33804734  0.56303605     0.04900
C1419       C  0.59283970  0.36322216  0.03472469    -0.20900
C1420       C  0.55371223  0.36430800  0.02945837    -0.07400
C1421       C  0.55776642  0.40779905  0.02849375     0.13400
C1422       C  0.60056649  0.44776576  0.02821469    -0.20900
C1423       C  0.64010880  0.44640830  0.02899240    -0.07400
C1424       C  0.63581362  0.40331261  0.03435512     0.13400
C1425       C  0.67606138  0.39861121  0.03757350    -0.24300
H1426       H  0.59007119  0.33008836  0.03693859     0.14700
H1427       H  0.60549715  0.47948640  0.52978176     0.14700
C1428       C  0.51961194  0.41186580  0.53220554    -0.24200
H1429       H  0.66650645  0.36284395  0.04275838     0.04900
H1430       H  0.70074337  0.41732538  0.55447733     0.08200
H1431       H  0.69497894  0.40870827  0.01527655     0.08200
H1432       H  0.49658124  0.39084017  0.55141490     0.08200
H1433       H  0.50046770  0.40191733  0.00440023     0.08200
H1434       H  0.52937678  0.44788616  0.53630881     0.04900
C1435       C  0.47230994  0.33278605  0.63367847    -0.20900
C1436       C  0.45289744  0.35822920  0.64070245    -0.07400
C1437       C  0.42342778  0.36088392  0.61944642     0.13400
C1438       C  0.41317964  0.33644244  0.59141963    -0.20900
C1439       C  0.43073265  0.30863880  0.58514138    -0.07400
C1440       C  0.46121147  0.30724353  0.60652447     0.13400
C1441       C  0.48245160  0.27910255  0.60175610    -0.24300
H1442       H  0.49513088  0.33149824  0.65028184     0.14700
H1443       H  0.38993175  0.33742211  0.57507448     0.14700
C1444       C  0.40312449  0.38943239  0.62615464    -0.24200
H1445       H  0.50481028  0.28247777  0.62140385     0.04900
H1446       H  0.50328901  0.29045698  0.58052042     0.08200
H1447       H  0.45649556  0.24270568  0.60040541     0.08200
H1448       H  0.43004769  0.42547824  0.62995029     0.08200
H1449       H  0.38178872  0.37620122  0.64739233     0.08200
H1450       H  0.38183187  0.38856785  0.60651578     0.04900
C1451       C  0.46303648  0.27883455  0.88438298    -0.20900
C1452       C  0.49088312  0.30862559  0.90782813    -0.07400
C1453       C  0.52159530  0.35496766  0.90082600     0.13400
C1454       C  0.52159346  0.37078254  0.87060072    -0.20900
C1455       C  0.49083010  0.34158047  0.84813556    -0.07400
C1456       C  0.46227601  0.29493204  0.85456640     0.13400
C1457       C  0.43075837  0.26241615  0.83023787    -0.24300
H1458       H  0.43952678  0.24321709  0.89012131     0.14700
H1459       H  0.54396396  0.40670552  0.86507849     0.14700
C1460       C  0.55225418  0.38913335  0.92481090    -0.24200
H1461       H  0.41144124  0.22676374  0.83926435     0.04900
H1462       H  0.45012181  0.26306655  0.80940249     0.08200
H1463       H  0.40653573  0.27250999  0.82310745     0.08200
H1464       H  0.54960503  0.37386540  0.94822446     0.08200
H1465       H  0.54417741  0.41631388  0.92741122     0.08200
H1466       H  0.58753618  0.40508698  0.91679559     0.04900
C1467       C  0.63225414  0.56416416  0.61605562    -0.20900
C1468       C  0.64529832  0.54770157  0.64142912    -0.07400
C1469       C  0.68007362  0.53878934  0.63788057     0.13400
C1470       C  0.70352742  0.55007434  0.60959152    -0.20900
C1471       C  0.69281026  0.56957210  0.58460953    -0.07400
C1472       C  0.65468254  0.57387093  0.58718593     0.13400
C1473       C  0.63695898  0.58797790  0.55996469    -0.24300
H1474       H  0.60405308  0.56886410  0.61878531     0.14700
H1475       H  0.73063301  0.54368498  0.60707958     0.14700
C1476       C  0.69367422  0.51895297  0.66418167    -0.24200
H1477       H  0.60614872  0.58796225  0.56636710     0.04900
H1478       H  0.62799438  0.56343550  0.54046305     0.08200
H1479       H  0.66247787  0.62283419  0.55187026     0.08200
H1480       H  0.66554262  0.48419930  0.67019560     0.08200
H1481       H  0.70297577  0.54114075  0.68511463     0.08200
H1482       H  0.72287115  0.51605267  0.65763169     0.04900
C1483       C  0.69693646  0.50405885  0.88338857    -0.20900
C1484       C  0.68303096  0.51588499  0.91059503    -0.07400
C1485       C  0.64949683  0.52724239  0.90850525     0.13400
C1486       C  0.63335660  0.53014275  0.87901565    -0.20900
C1487       C  0.64913525  0.52088577  0.85160977    -0.07400
C1488       C  0.67998039  0.50592270  0.85386756     0.13400
C1489       C  0.69684438  0.49419579  0.82507237    -0.24300
H1490       H  0.72275690  0.49579471  0.88501218     0.14700
H1491       H  0.60831934  0.53969658  0.87733859     0.14700
C1492       C  0.63080675  0.53652998  0.93748577    -0.24200
H1493       H  0.72259302  0.48564492  0.83093758     0.04900
H1494       H  0.71211980  0.52370611  0.80859999     0.08200
H1495       H  0.66876136  0.46413246  0.81334403     0.08200
H1496       H  0.65729477  0.56709383  0.94980547     0.08200
H1497       H  0.61692619  0.50652075  0.95349979     0.08200
H1498       H  0.60347045  0.54283817  0.93171048     0.04900
C1499       C  0.51677346  0.66400219  0.59900753    -0.20900
C1500       C  0.55858493  0.67672807  0.58576327    -0.07400
C1501       C  0.58604158  0.66414973  0.60146540     0.13400
C1502       C  0.57139897  0.63979262  0.63000184    -0.20900
C1503       C  0.53035207  0.62865777  0.64424560    -0.07400
C1504       C  0.50220361  0.64018671  0.62783862     0.13400
C1505       C  0.45776489  0.62959551  0.64082266    -0.24300
H1506       H  0.49601275  0.67448568  0.58716130     0.14700
H1507       H  0.59355658  0.63138278  0.64203946     0.14700
C1508       C  0.63251189  0.68014053  0.58963163    -0.24200
H1509       H  0.44194928  0.64395463  0.62585659     0.04900
H1510       H  0.46221409  0.64451207  0.66452803     0.08200
H1511       H  0.43446505  0.59209755  0.64168329     0.08200
H1512       H  0.65285141  0.71798634  0.59018421     0.08200
H1513       H  0.63093668  0.66877186  0.56515669     0.08200
H1514       H  0.64961407  0.66673302  0.60415646     0.04900
C1515       C  0.51537763  0.66999249  0.85651448    -0.20900
C1516       C  0.54390315  0.65285352  0.85270656    -0.07400
C1517       C  0.57946796  0.66568726  0.87386463     0.13400
C1518       C  0.58382046  0.69318142  0.89930458    -0.20900
C1519       C  0.55361229  0.70808784  0.90422750    -0.07400
C1520       C  0.51985476  0.69766535  0.88194310     0.13400
C1521       C  0.48891435  0.71590941  0.88446791    -0.24300
H1522       H  0.48898666  0.66129399  0.83962537     0.14700
H1523       H  0.61008194  0.70146417  0.91625664     0.14700
C1524       C  0.61160982  0.64894558  0.87079084    -0.24200
H1525       H  0.46683813  0.70691175  0.86367283     0.04900
H1526       H  0.50885955  0.75373262  0.88618046     0.08200
H1527       H  0.46695521  0.70119958  0.90535762     0.08200
H1528       H  0.63096849  0.66201248  0.84865245     0.08200
H1529       H  0.59287781  0.61103716  0.87099945     0.08200
H1530       H  0.63607805  0.66095675  0.89033676     0.04900
C1531       C  0.29989935  0.38346464  0.65579195    -0.20900
C1532       C  0.31986312  0.42689845  0.66967595    -0.07400
C1533       C  0.30912932  0.45875970  0.65785690     0.13400
C1534       C  0.28232397  0.44765300  0.63109804    -0.20900
C1535       C  0.26677246  0.40621787  0.61531464    -0.07400
C1536       C  0.27409128  0.37285237  0.62857859     0.13400
C1537       C  0.25742671  0.32720739  0.61330441    -0.24300
H1538       H  0.30617557  0.35784318  0.66519956     0.14700
H1539       H  0.27558004  0.47280741  0.62128559     0.14700
C1540       C  0.32635882  0.50489860  0.67245788    -0.24200
H1541       H  0.26689338  0.30570050  0.62684254     0.04900
H1542       H  0.27211174  0.33218727  0.58947914     0.08200
H1543       H  0.22034002  0.30824660  0.61178889     0.08200
H1544       H  0.36331415  0.52595432  0.67014219     0.08200
H1545       H  0.31646104  0.50069566  0.69754095     0.08200
H1546       H  0.31251847  0.52401484  0.66082272     0.04900
C1547       C  0.38144265  0.46601802  0.89271741    -0.20900
C1548       C  0.35791033  0.43568055  0.86838600    -0.07400
C1549       C  0.31296266  0.40044522  0.87354892     0.13400
C1550       C  0.29235540  0.39743861  0.90259210    -0.20900
C1551       C  0.31554393  0.42840283  0.92691119    -0.07400
C1552       C  0.36120164  0.46275147  0.92192405     0.13400
C1553       C  0.38849874  0.49781177  0.94643477    -0.24300
H1554       H  0.41592329  0.49292307  0.88865218     0.14700
H1555       H  0.25743842  0.37131092  0.90607663     0.14700
C1556       C  0.28583008  0.36741794  0.84799531    -0.24200
H1557       H  0.42308540  0.52238819  0.93816345     0.04900
H1558       H  0.39118662  0.48076544  0.96779383     0.08200
H1559       H  0.37265177  0.51772102  0.95222023     0.08200
H1560       H  0.30060195  0.34666869  0.84163849     0.08200
H1561       H  0.28524640  0.38645175  0.82703517     0.08200
H1562       H  0.25067170  0.34354937  0.85549041     0.04900
C1563       C  0.87481780  0.56492328  0.64210998    -0.24500
C1564       C  0.88614939  0.53151906  0.64023533    -0.07400
C1565       C  0.87461523  0.50407592  0.61303224     0.13400
C1566       C  0.85268612  0.51161518  0.58812543    -0.20900
C1567       C  0.84251859  0.54617309  0.58961804    -0.07400
C1568       C  0.85316257  0.57267379  0.61741052     0.13400
C1569       C  0.84210240  0.60950046  0.62165170    -0.24300
H1570       H  0.88307463  0.58524821  0.66318761     0.14700
H1571       H  0.84541834  0.49191520  0.56682768     0.14700
C1572       C  0.88753276  0.46864692  0.60925990    -0.24200
H1573       H  0.84831827  0.62258013  0.64602382     0.04900
H1574       H  0.80626976  0.59575632  0.61657303     0.08200
H1575       H  0.86332549  0.63915088  0.60615345     0.08200
H1576       H  0.86923141  0.44051721  0.62641058     0.08200
H1577       H  0.92415296  0.48454595  0.61270606     0.08200
H1578       H  0.87919357  0.45323669  0.58553975     0.04900
C1579       C  0.90124291  0.57733229  0.86223420    -0.20900
C1580       C  0.87481652  0.53643039  0.84548902    -0.07400
C1581       C  0.83081667  0.50571819  0.85690078     0.13400
C1582       C  0.81664192  0.51472560  0.88540927    -0.20900
C1583       C  0.84379638  0.55427484  0.90303918    -0.07400
C1584       C  0.88640558  0.58672259  0.89054643     0.13400
C1585       C  0.91688136  0.63099501  0.90697072    -0.24300
H1586       H  0.93440481  0.60188699  0.85353711     0.14700
H1587       H  0.78417185  0.48929961  0.89456994     0.14700
C1588       C  0.79743510  0.46344394  0.83952447    -0.24200
H1589       H  0.94799150  0.65312951  0.89334844     0.04900
H1590       H  0.92680173  0.62390110  0.92991282     0.08200
H1591       H  0.89947727  0.65007561  0.91039745     0.08200
H1592       H  0.80612880  0.43687963  0.84187805     0.08200
H1593       H  0.79586763  0.47174312  0.81454720     0.08200
H1594       H  0.76315103  0.44830390  0.84939505     0.04900
C1595       C  0.85854466  0.30163618  0.60157345    -0.20900
C1596       C  0.89288594  0.30374973  0.58303039    -0.07400
C1597       C  0.93791578  0.33531221  0.59091188     0.13400
C1598       C  0.94719217  0.36029332  0.61887817    -0.20900
C1599       C  0.91262257  0.35550986  0.63860243    -0.07400
C1600       C  0.86774924  0.32725021  0.62904015     0.13400
C1601       C  0.82924408  0.32179590  0.64847272    -0.24300
H1602       H  0.82393404  0.27844291  0.59502113     0.14700
H1603       H  0.98175180  0.38297904  0.62575369     0.14700
C1604       C  0.97615767  0.34150931  0.57081633    -0.24200
H1605       H  0.79637446  0.29712406  0.63788106     0.04900
H1606       H  0.83129125  0.35512190  0.65030853     0.08200
H1607       H  0.83027616  0.30904306  0.67224706     0.08200
H1608       H  0.97359943  0.35313891  0.54699799     0.08200
H1609       H  0.97542333  0.30880004  0.56913960     0.08200
H1610       H  0.00900469  0.36770701  0.58060649     0.04900
C1611       C  0.87366401  0.30039758  0.85197186    -0.20900
C1612       C  0.87975405  0.34380341  0.84876389    -0.07400
C1613       C  0.86539744  0.36163637  0.87272066     0.13400
C1614       C  0.84650418  0.33590968  0.90007462    -0.20900
C1615       C  0.84269434  0.29347028  0.90402835    -0.07400
C1616       C  0.85513849  0.27473087  0.87926096     0.13400
C1617       C  0.84896191  0.22774723  0.88111806    -0.24300
H1618       H  0.88419208  0.28683854  0.83315867     0.14700
H1619       H  0.83710620  0.35011513  0.91913279     0.14700
C1620       C  0.87224700  0.40865863  0.87030729    -0.24200
H1621       H  0.85638237  0.21743040  0.85836392     0.04900
H1622       H  0.81378110  0.20217388  0.88740493     0.08200
H1623       H  0.87199971  0.22694626  0.89860695     0.08200
H1624       H  0.85303006  0.40986431  0.85018510     0.08200
H1625       H  0.90834771  0.43441254  0.86695282     0.08200
H1626       H  0.86040141  0.41775865  0.89161617     0.04900
C1627       C  0.09490248  0.41264504  0.64296100    -0.20900
C1628       C  0.12172266  0.45739463  0.65463242    -0.07400
C1629       C  0.16417058  0.48631602  0.64048642     0.13400
C1630       C  0.17745524  0.47027402  0.61493161    -0.20900
C1631       C  0.14986515  0.42625544  0.60267223    -0.07400
C1632       C  0.10830101  0.39672614  0.61739529     0.13400
C1633       C  0.07716362  0.34890636  0.60583424    -0.24300
H1634       H  0.06253541  0.38979419  0.65357198     0.14700
H1635       H  0.20952400  0.49293822  0.60381333     0.14700
C1636       C  0.19603050  0.53413364  0.65151710    -0.24200
H1637       H  0.04530972  0.33123379  0.61934570     0.04900
H1638       H  0.09343944  0.32857794  0.60839721     0.08200
H1639       H  0.06878010  0.34977190  0.58084586     0.08200
H1640       H  0.20277502  0.53390741  0.67691470     0.08200
H1641       H  0.18178165  0.55575711  0.64645428     0.08200
H1642       H  0.22875253  0.55001547  0.63910938     0.04900
C1643       C  0.11730652  0.42497109  0.90111559    -0.20900
C1644       C  0.16346796  0.45616455  0.90484762    -0.07400
C1645       C  0.18608545  0.49135279  0.88186805     0.13400
C1646       C  0.16186269  0.49473713  0.85697807    -0.20900
C1647       C  0.11572059  0.46468126  0.85386969    -0.07400
C1648       C  0.09318823  0.42867111  0.87592300     0.13400
C1649       C  0.04357959  0.39504867  0.87373650    -0.24300
H1650       H  0.09965400  0.39804853  0.91840227     0.14700
H1651       H  0.17941892  0.52167777  0.83972059     0.14700
C1652       C  0.23559097  0.52670842  0.88313632    -0.24200
H1653       H  0.03127083  0.37033168  0.89355685     0.04900
H1654       H  0.03592774  0.37521225  0.85177045     0.08200
H1655       H  0.02514586  0.41342478  0.87413812     0.08200
H1656       H  0.25532723  0.50970504  0.88271192     0.08200
H1657       H  0.24326259  0.54781056  0.90451165     0.08200
H1658       H  0.24686832  0.55058401  0.86280547     0.04900
C1659       C  0.12340620  0.71068085  0.65070836    -0.20900
C1660       C  0.12185148  0.66901568  0.65174446    -0.07400
C1661       C  0.14010966  0.65695594  0.62681869     0.13400
C1662       C  0.15606805  0.68517024  0.60021898    -0.20900
C1663       C  0.15454733  0.72531188  0.59800949    -0.07400
C1664       C  0.14013973  0.73945160  0.62438168     0.13400
C1665       C  0.14246954  0.78464653  0.62536027    -0.24300
H1666       H  0.11062257  0.72035602  0.67044465     0.14700
H1667       H  0.16797954  0.67460766  0.58048239     0.14700
C1668       C  0.14086229  0.61339828  0.62740067    -0.24200
H1669       H  0.13369240  0.79139303  0.64891945     0.04900
H1670       H  0.11847921  0.78493400  0.60848889     0.08200
H1671       H  0.17705296  0.81276404  0.61977017     0.08200
H1672       H  0.10632608  0.58358433  0.63022715     0.08200
H1673       H  0.16192569  0.61434011  0.64716673     0.08200
H1674       H  0.15512823  0.60872349  0.60547046     0.04900
C1675       C  0.09727889  0.63289970  0.87649338    -0.20900
C1676       C  0.10787399  0.66053048  0.84978695    -0.07400
C1677       C  0.13882546  0.70793338  0.85159733     0.13400
C1678       C  0.15693499  0.72710186  0.88082369    -0.20900
C1679       C  0.14472128  0.69941503  0.90767539    -0.07400
C1680       C  0.11611935  0.65181324  0.90544311     0.13400
C1681       C  0.10758629  0.62082664  0.93315532    -0.24300
H1682       H  0.07519174  0.59626964  0.87445338     0.14700
H1683       H  0.18078094  0.76341357  0.88273091     0.14700
C1684       C  0.15323752  0.73785785  0.82277310    -0.24200
H1685       H  0.08467355  0.58434567  0.92720643     0.04900
H1686       H  0.09235052  0.62941329  0.95259216     0.08200
H1687       H  0.13969120  0.62501279  0.94118917     0.08200
H1688       H  0.12371853  0.73660801  0.81198142     0.08200
H1689       H  0.16854193  0.72567713  0.80558870     0.08200
H1690       H  0.17832588  0.77398042  0.82837146     0.04900
C1691       C  0.33652367  0.85230044  0.62854144    -0.20900
C1692       C  0.34540252  0.89358068  0.64211707    -0.07400
C1693       C  0.32528857  0.91665069  0.62866964     0.13400
C1694       C  0.29665498  0.89747251  0.60303275    -0.20900
C1695       C  0.28860560  0.85702143  0.58909651    -0.07400
C1696       C  0.30877525  0.83391791  0.60207818     0.13400
C1697       C  0.30045587  0.78947334  0.58879440    -0.24300
H1698       H  0.35143784  0.83416706  0.63853158     0.14700
H1699       H  0.28122210  0.91526057  0.59314958     0.14700
C1700       C  0.33431236  0.96221318  0.64017661    -0.24200
H1701       H  0.31667825  0.77486970  0.60306563     0.04900
H1702       H  0.31443297  0.79492997  0.56472775     0.08200
H1703       H  0.26393038  0.76409924  0.58833915     0.08200
H1704       H  0.37070733  0.98775507  0.63857208     0.08200
H1705       H  0.32216635  0.95901171  0.66462276     0.08200
H1706       H  0.31684265  0.97546079  0.62590066     0.04900
C1707       C  0.32987118  0.90927858  0.86105211    -0.20900
C1708       C  0.33753625  0.87961917  0.84312529    -0.07400
C1709       C  0.31534382  0.83287459  0.85158928     0.13400
C1710       C  0.28847111  0.81804738  0.87844645    -0.20900
C1711       C  0.28528468  0.84875708  0.89842583    -0.07400
C1712       C  0.30449511  0.89471649  0.88877971     0.13400
C1713       C  0.29921521  0.92880592  0.90747676    -0.24300
H1714       H  0.34548249  0.94474967  0.85405709     0.14700
H1715       H  0.27240773  0.78235450  0.88501866     0.14700
C1716       C  0.31983162  0.79796670  0.83332139    -0.24200
H1717       H  0.31467656  0.96248441  0.89545624     0.04900
H1718       H  0.31564721  0.93435766  0.93063531     0.08200
H1719       H  0.26307219  0.91602732  0.91061054     0.08200
H1720       H  0.35355031  0.80320265  0.83706881     0.08200
H1721       H  0.31354555  0.80012948  0.80805872     0.08200
H1722       H  0.29545749  0.76260065  0.84133311     0.04900
C1723       C  0.57914307  0.94079362  0.61614817    -0.20900
C1724       C  0.54457053  0.90865136  0.63581736    -0.07400
C1725       C  0.51912411  0.86257773  0.62640017     0.13400
C1726       C  0.53135736  0.84940373  0.59906595    -0.20900
C1727       C  0.56762768  0.88093094  0.58040310    -0.07400
C1728       C  0.59095170  0.92751724  0.58847121     0.13400
C1729       C  0.63003417  0.96269907  0.56932385    -0.24300
H1730       H  0.59801471  0.97639245  0.62290126     0.14700
H1731       H  0.51319831  0.81363256  0.59266109     0.14700
C1732       C  0.48054752  0.82647707  0.64559702    -0.24200
H1733       H  0.64515366  0.99739214  0.57948472     0.04900
H1734       H  0.61897586  0.96394991  0.54515108     0.08200
H1735       H  0.65621561  0.95368539  0.56855789     0.08200
H1736       H  0.45379433  0.83469838  0.64726983     0.08200
H1737       H  0.49226598  0.82446063  0.66939758     0.08200
H1738       H  0.46550257  0.79213623  0.63488303     0.04900
C1739       C  0.57377240  0.88253140  0.85343503    -0.20900
C1740       C  0.54208115  0.89578461  0.85101564    -0.07400
C1741       C  0.52198713  0.89993519  0.87851536     0.13400
C1742       C  0.53438334  0.89088276  0.90783296    -0.20900
C1743       C  0.56544703  0.87661826  0.91016834    -0.07400
C1744       C  0.58481544  0.87168123  0.88252976     0.13400
C1745       C  0.61753657  0.85553518  0.88350935    -0.24300
H1746       H  0.58972015  0.88030735  0.83230444     0.14700
H1747       H  0.51873035  0.89360759  0.92899999     0.14700
C1748       C  0.48829158  0.91476777  0.87701899    -0.24200
H1749       H  0.63092399  0.85580336  0.85985063     0.04900
H1750       H  0.60081028  0.81999967  0.89258747     0.08200
H1751       H  0.64622762  0.87811816  0.89876569     0.08200
H1752       H  0.45883085  0.88989647  0.86312276     0.08200
H1753       H  0.50368901  0.94902736  0.86583496     0.08200
H1754       H  0.47626933  0.91674753  0.90072290     0.04900
C1755       C  0.65670073  0.14743158  0.62526865    -0.20900
C1756       C  0.66815513  0.12907888  0.65045611    -0.07400
C1757       C  0.70744833  0.12694592  0.64820185     0.13400
C1758       C  0.73236417  0.14029755  0.62033586    -0.20900
C1759       C  0.71908929  0.15496952  0.59395166    -0.07400
C1760       C  0.68141200  0.16013943  0.59702711     0.13400
C1761       C  0.66554400  0.17695307  0.57056992    -0.24300
H1762       H  0.62693934  0.14961254  0.62708605     0.14700
H1763       H  0.76194557  0.13774394  0.61896734     0.14700
C1764       C  0.72391548  0.11091324  0.67511813    -0.24200
H1765       H  0.63635703  0.17979865  0.57726229     0.04900
H1766       H  0.65482953  0.15218546  0.55119268     0.08200
H1767       H  0.69294741  0.21127534  0.56305735     0.08200
H1768       H  0.70046423  0.07399570  0.67960310     0.08200
H1769       H  0.72718926  0.13081570  0.69644825     0.08200
H1770       H  0.75721749  0.11550769  0.67010426     0.04900
C1771       C  0.67626271  0.15285336  0.86207851    -0.20900
C1772       C  0.65934986  0.10796745  0.85263166    -0.07400
C1773       C  0.67276360  0.08090960  0.86927252     0.13400
C1774       C  0.70211155  0.09958438  0.89503059    -0.20900
C1775       C  0.71839387  0.14449744  0.90493169    -0.07400
C1776       C  0.70497573  0.17148782  0.88778181     0.13400
C1777       C  0.71902048  0.21985520  0.89625635    -0.24300
H1778       H  0.66660769  0.17376347  0.84930338     0.14700
H1779       H  0.71117438  0.07842127  0.90814225     0.14700
C1780       C  0.65534508  0.03186189  0.86093582    -0.24200
H1781       H  0.70642492  0.23538046  0.87938695     0.04900
H1782       H  0.75585035  0.24145502  0.89588446     0.08200
H1783       H  0.70541135  0.22073324  0.91955071     0.08200
H1784       H  0.66761061  0.03018962  0.83731120     0.08200
H1785       H  0.61816247  0.01219058  0.86154732     0.08200
H1786       H  0.66708420  0.01526190  0.87758425     0.04900
C1787       C  0.49263228  0.12907003  0.62034819    -0.20900
C1788       C  0.46810305  0.12573411  0.64730387    -0.07400
C1789       C  0.43706515  0.14022769  0.64602717     0.13400
C1790       C  0.43028134  0.15641947  0.61762072    -0.20900
C1791       C  0.45395796  0.15911783  0.59018171    -0.07400
C1792       C  0.48537296  0.14478230  0.59163482     0.13400
C1793       C  0.50895759  0.14283384  0.56281391    -0.24300
H1794       H  0.51595336  0.11718370  0.62141698     0.14700
H1795       H  0.40549392  0.16639794  0.61675961     0.14700
C1796       C  0.41134487  0.13921764  0.67471022    -0.24200
H1797       H  0.53118979  0.12940034  0.56797717     0.04900
H1798       H  0.52989726  0.17755675  0.55303428     0.08200
H1799       H  0.48398217  0.12025019  0.54518609     0.08200
H1800       H  0.43508957  0.15949554  0.69365776     0.08200
H1801       H  0.38902707  0.10356841  0.68291418     0.08200
H1802       H  0.39010770  0.15391517  0.66987297     0.04900
C1803       C  0.40706655  0.11955996  0.89228484    -0.20900
C1804       C  0.44465463  0.15884710  0.90401766    -0.07400
C1805       C  0.48590396  0.17730535  0.88739702     0.13400
C1806       C  0.48830571  0.15503793  0.86062728    -0.20900
C1807       C  0.45132145  0.11437900  0.84961009    -0.07400
C1808       C  0.40956656  0.09706476  0.86551139     0.13400
C1809       C  0.36720007  0.05469505  0.85549192    -0.24300
H1810       H  0.37557155  0.10541456  0.90482602     0.14700
H1811       H  0.52019822  0.16914729  0.84866669     0.14700
C1812       C  0.52864470  0.21926279  0.89806055    -0.24200
H1813       H  0.33836885  0.04682035  0.87087817     0.04900
H1814       H  0.37166049  0.02500883  0.85697025     0.08200
H1815       H  0.35816489  0.05952383  0.83146611     0.08200
H1816       H  0.53854488  0.21295432  0.92135543     0.08200
H1817       H  0.52411668  0.24891046  0.89908598     0.08200
H1818       H  0.55703883  0.22866610  0.88182119     0.04900
loop_ 
_geom_bond_atom_site_label_1 
_geom_bond_atom_site_label_2 
_geom_bond_distance 
_geom_bond_site_symmetry_2 
_ccdc_geom_bond_type 
C1           N19   1.362       .  A
C1           C38   1.465       .  S
C1          C898   1.505       .  S
N2           N19   1.327       .  A
N2           N24   1.318       .  A
N2          Co39   2.115       .  S
C3           N28   1.345       .  A
C3           C41   1.469       .  S
C3           H48   1.081       .  S
H4           C45   1.080       .  S
C5           N29   1.336       .  A
C5            C9   1.447       .  S
C5           H34   1.075       .  S
Co6          N24   2.069       .  S
Co6          N14   2.084   1_545  S
Co6          N46   2.083       .  S
Co6          N22   2.083   1_545  S
Co6         Cl50   2.445       .  S
N7           C45   1.340       .  A
N7           N14   1.318       .  A
N7           Co8   2.085       .  S
Co8          N11   2.105       .  S
Co8          N28   2.092       .  S
Co8          N15   2.092       .  S
Co8         Cl50   2.456   1_565  S
C9           N47   1.356       .  A
C9          C831   1.479       .  S
N10          N17   1.320       .  A
N10          N40   1.323       .  A
N10         Co43   2.061       .  S
N11          N29   1.319       .  A
N11          N47   1.331       .  A
N12          C41   1.350       .  A
N12          N22   1.322       .  A
H13          C38   1.075       .  S
N14          N35   1.322       .  A
N15          N33   1.319       .  A
N15          N20   1.324       .  A
C16          N20   1.351       .  A
C16          C44   1.454       .  S
C16         C815   1.478       .  S
N17          C32   1.345       .  A
N17         Co39   2.121       .  S
C18          N46   1.339       .  A
C18          C21   1.455       .  S
C18          H52   1.079       .  S
C21          N42   1.351       .  A
C21         C879   1.475       .  S
N22          N28   1.318       .  A
N23          C49   1.351       .  A
N23          N25   1.319       .  A
N23         Co39   2.110       .  S
N24          C38   1.337       .  A
N25          N53   1.323       .  A
N25         Co43   2.081       .  S
H26          C49   1.081       .  S
H27          C44   1.081       .  S
N29         Co43   2.069   1_565  S
N30          N42   1.328       .  A
N30          N46   1.322       .  A
N30         Co39   2.098       .  S
C31          N35   1.350       .  A
C31          C45   1.467       .  S
C31         C799   1.485       .  S
C32          C51   1.477       .  S
C32          H36   1.081       .  S
N33          C44   1.336       .  A
N33         Co43   2.059   1_565  S
C37          N53   1.348       .  A
C37          C49   1.470       .  S
C37         C847   1.493       .  S
Co39        Cl50   2.457       .  S
N40          C51   1.342       .  A
C41         C783   1.495       .  S
Co43        Cl50   2.453       .  S
C51         C863   1.491       .  S
C54          N72   1.343       .  A
C54          C91   1.461       .  S
C54         C767   1.465       .  S
N55          N72   1.321       .  A
N55          N77   1.323       .  A
N55         Co92   2.078       .  S
C56          N81   1.334       .  A
C56          C94   1.447       .  S
C56         H101   1.080       .  S
H57          C98   1.073       .  S
C58          N82   1.336       .  A
C58          C62   1.452       .  S
C58          H87   1.082       .  S
Co59         N77   2.097   1_655  S
Co59         N67   2.102       .  S
Co59         N99   2.076   1_655  S
Co59         N75   2.114       .  S
Co59       Cl103   2.461       .  S
N60          C98   1.342       .  A
N60          N67   1.318       .  A
N60         Co61   2.101       .  S
Co61         N64   2.055       .  S
Co61         N81   2.049       .  S
Co61         N68   2.101       .  S
Co61       Cl103   2.444       .  S
C62         N100   1.341       .  A
C62         C703   1.452       .  S
N63          N70   1.318       .  A
N63          N93   1.325       .  A
N63         Co96   2.074       .  S
N64          N82   1.319       .  A
N64         N100   1.319       .  A
N65          C94   1.359       .  A
N65          N75   1.328       .  A
H66          C91   1.081       .  S
N67          N88   1.329       .  A
N68          N86   1.319       .  A
N68          N73   1.328       .  A
C69          N73   1.353       .  A
C69          C97   1.451       .  S
C69         C690   1.480       .  S
N70          C85   1.337       .  A
N70         Co92   2.089       .  S
C71          N99   1.336       .  A
C71          C74   1.454       .  S
C71         H105   1.081       .  S
C74          N95   1.347       .  A
C74         C751   1.466       .  S
N75          N81   1.318       .  A
N76         C102   1.345       .  A
N76          N78   1.316       .  A
N76         Co92   2.092       .  S
N77          C91   1.345       .  A
N78         N106   1.321       .  A
N78         Co96   2.075       .  S
H79         C102   1.075       .  S
H80          C97   1.081       .  S
N82         Co96   2.071   1_655  S
N83          N95   1.324       .  A
N83          N99   1.322       .  A
N83         Co92   2.079       .  S
C84          N88   1.358       .  A
C84          C98   1.473       .  S
C84         C671   1.511       .  S
C85         C104   1.465       .  S
C85          H89   1.082       .  S
N86          C97   1.338       .  A
N86         Co96   2.068   1_655  S
C90         N106   1.349       .  A
C90         C102   1.476       .  S
C90         C719   1.498       .  S
Co92       Cl103   2.441   1_455  S
N93         C104   1.349       .  A
C94         C655   1.476       .  S
Co96       Cl103   2.457   1_455  S
C104        C738   1.487       .  S
C107        N125   1.352       .  A
C107        C144   1.460       .  S
C107        C639   1.481       .  S
N108        N125   1.326       .  A
N108        N130   1.323       .  A
N108       Co145   2.115       .  S
C109        N134   1.332       .  A
C109        C147   1.450       .  S
C109        H154   1.080       .  S
H110        C151   1.081       .  S
C111        N135   1.349       .  A
C111        C115   1.472       .  S
C111        H140   1.082       .  S
Co112       N130   2.084       .  S
Co112       N120   2.084       .  S
Co112       N152   2.058       .  S
Co112       N128   2.065       .  S
Co112      Cl156   2.447       .  S
N113        C151   1.329       .  A
N113        N120   1.316       .  A
N113       Co114   2.034       .  S
Co114       N117   2.064       .  S
Co114       N134   2.058       .  S
Co114       N121   2.046       .  S
Co114      Cl156   2.447       .  S
C115        N153   1.340       .  A
C115        C578   1.478       .  S
N116        N123   1.318       .  A
N116        N146   1.323       .  A
N116       Co149   2.068       .  S
N117        N135   1.321       .  A
N117        N153   1.320       .  A
N118        C147   1.341       .  A
N118        N128   1.320       .  A
H119        C144   1.080       .  S
N120        N141   1.324       .  A
N121        N139   1.315       .  A
N121        N126   1.319       .  A
C122        N126   1.341       .  A
C122        C150   1.452       .  S
C122        C559   1.455       .  S
N123        C138   1.332       .  A
N123       Co145   2.061       .  S
C124        N152   1.332       .  A
C124        C127   1.457       .  S
C124        H158   1.081       .  S
C127        N148   1.354       .  A
C127        C623   1.487       .  S
N128        N134   1.320       .  A
N129        C155   1.351       .  A
N129        N131   1.322       .  A
N129       Co145   2.122       .  S
N130        C144   1.343       .  A
N131        N159   1.323       .  A
N131       Co149   2.090       .  S
H132        C155   1.078       .  S
H133        C150   1.082       .  S
N135       Co149   2.118       .  S
N136        N148   1.325       .  A
N136        N152   1.314       .  A
N136       Co145   2.079       .  S
C137        N141   1.353       .  A
C137        C151   1.437       .  S
C137        C546   1.450       .  S
C138        C157   1.451       .  S
C138        H142   1.082       .  S
N139        C150   1.340       .  A
N139       Co149   2.073       .  S
C143        N159   1.349       .  A
C143        C155   1.481       .  S
C143        C594   1.508       .  S
Co145      Cl156   2.441       .  S
N146        C157   1.349       .  A
C147        C527   1.449       .  S
Co149      Cl156   2.447       .  S
C157        C607   1.467       .  S
O160        C168   1.293       .  A
O160       Co180   1.983       .  S
O161        C169   1.259       .  A
O161       Co181   1.956       .  S
O162        C170   1.263       .  A
O162      Co1091   2.008   1_554  S
O163       C1080   1.273       .  A
O163       Co183   2.027   1_554  S
O164        C170   1.249       .  A
O164       Co181   1.964       .  S
O165        C171   1.266       .  A
O165       Co180   1.993       .  S
O166        C169   1.261       .  A
O166       Co183   1.983   1_554  S
O167        C168   1.293       .  A
O167       Co182   1.989       .  S
C168        C498   1.485       .  S
C169        C562   1.476       .  S
C170        C658   1.484       .  S
C171        C514   1.505       .  S
C171       O1072   1.273       .  A
O172        C185   1.283       .  A
O172       Co180   2.048       .  S
O173        C186   1.279       .  A
O173       Co181   1.998       .  S
O174        C187   1.236       .  A
O174       Co182   2.000       .  S
O175        C188   1.271   1_556  A
O175       Co183   1.992       .  S
O176        C188   1.267       .  A
O176       Co181   2.012       .  S
O177        C187   1.246       .  A
O177       Co180   2.028       .  S
O178        C185   1.261       .  A
O178      Co1092   1.952       .  S
O179       C1095   1.279       .  A
O179       Co182   2.005       .  S
Co180      O1093   2.097       .  S
Co181       O184   2.072   1_554  S
Co182      O1071   2.010       .  S
Co182      O1093   2.016       .  S
Co183      O1087   1.950       .  S
Co183       O184   2.064       .  S
O184      Co1089   2.100       .  S
O184      Co1091   2.017       .  S
C185        C575   1.473       .  S
C186        C463   1.495       .  S
C186       O1088   1.281       .  A
C187        C674   1.507       .  S
C188        C482   1.514       .  S
O189        C197   1.275       .  A
O189       Co209   1.981       .  S
O190        C198   1.257       .  A
O190       Co210   1.947       .  S
O191        C199   1.262       .  A
O191      Co1120   2.012   1_554  S
O192       C1109   1.272   1_556  A
O192       Co212   2.020       .  S
O193        C199   1.262       .  A
O193       Co210   2.000       .  S
O194        C200   1.250       .  A
O194       Co209   1.931       .  S
O195        C198   1.272       .  A
O195       Co212   2.026   1_554  S
O196        C197   1.278       .  A
O196       Co211   1.973       .  S
C197        C450   1.477       .  S
C198        C687   1.484       .  S
C199        C850   1.508       .  S
C200        C495   1.489       .  S
C200       O1101   1.277       .  A
O201        C214   1.260       .  A
O201       Co209   1.989       .  S
O202        C215   1.276       .  A
O202       Co210   1.986       .  S
O203        C216   1.257       .  A
O203       Co211   1.988       .  S
O204        C217   1.240       .  A
O204       Co212   1.939       .  S
O205        C217   1.272   1_554  A
O205       Co210   2.052       .  S
O206        C216   1.259       .  A
O206       Co209   1.997       .  S
O207        C214   1.255       .  A
O207      Co1121   1.963       .  S
O208       C1124   1.280       .  A
O208       Co211   2.017       .  S
Co209      O1122   2.031       .  S
Co210       O213   2.076   1_554  S
Co211      O1100   2.007       .  S
Co211      O1122   1.978       .  S
Co212      O1116   1.935       .  S
Co212       O213   2.021       .  S
O213      Co1118   2.051       .  S
O213      Co1120   2.001       .  S
C214        C706   1.455       .  S
C215        C415   1.484       .  S
C215       O1117   1.284       .  A
C216        C866   1.498       .  S
C217        C431   1.493       .  S
O218        C226   1.278       .  A
O218       Co238   2.024       .  S
O219        C227   1.261       .  A
O219       Co239   1.995       .  S
O220        C228   1.265       .  A
O220      Co1149   1.979   1_554  S
O221       C1138   1.274       .  A
O221       Co241   1.921       .  S
O222        C228   1.274       .  A
O222       Co239   2.007       .  S
O223        C229   1.278       .  A
O223       Co238   2.005       .  S
O224        C227   1.259       .  A
O224       Co241   1.979       .  S
O225        C226   1.273       .  A
O225       Co240   1.959       .  S
C226        C402   1.481       .  S
C227        C754   1.479       .  S
C228        C786   1.484       .  S
C229        C386   1.463       .  S
C229       O1130   1.274       .  A
O230        C243   1.250       .  A
O230       Co238   1.955       .  S
O231        C244   1.273       .  A
O231       Co239   1.995       .  S
O232        C245   1.258       .  A
O232       Co240   1.990       .  S
O233        C246   1.275       .  A
O233       Co241   2.002       .  S
O234        C246   1.282       .  A
O234       Co239   2.016       .  S
O235        C245   1.256       .  A
O235       Co238   1.963       .  S
O236        C243   1.257       .  A
O236      Co1150   1.985       .  S
O237       C1153   1.270       .  A
O237       Co240   1.966       .  S
Co238      O1151   2.092       .  S
Co239       O242   2.039   1_554  S
Co240      O1129   1.977       .  S
Co240      O1151   1.939       .  S
Co241      O1145   1.981   1_554  S
Co241       O242   1.916   1_554  S
O242      Co1149   1.937       .  S
O242      Co1147   2.090       .  S
C243        C770   1.453       .  S
C244        C370   1.465       .  S
C244       O1146   1.270       .  A
C245        C802   1.483       .  S
C246        C466   1.499       .  S
O247        C255   1.293       .  A
O247       Co267   2.103       .  S
O248        C256   1.276       .  A
O248       Co268   2.051   1_554  S
O249        C257   1.266       .  A
O249       Co269   1.960       .  S
O250        C258   1.252       .  A
O250       Co270   1.952       .  S
O251       C1166   1.280   1_556  A
O251       Co268   2.039       .  S
O252        C258   1.264       .  A
O252      Co1176   2.014   1_554  S
O253        C256   1.251       .  A
O253       Co270   1.949       .  S
O254        C255   1.263       .  A
O254       Co269   1.905       .  S
C255        C399   1.494       .  S
C256        C591   1.489       .  S
C257        C354   1.480       .  S
C257       O1160   1.278       .  A
C258        C818   1.475       .  S
O259       C1181   1.266       .  A
O259       Co267   1.973       .  S
O260        C273   1.247       .  A
O260      Co1177   1.954       .  S
O261        C274   1.289       .  A
O261       Co269   2.082       .  S
O262        C275   1.280       .  A
O262       Co270   2.078       .  S
O263        C275   1.245   1_556  A
O263       Co268   1.944       .  S
O264        C274   1.270       .  A
O264       Co267   1.919       .  S
O265        C272   1.281       .  A
O265       Co270   2.036       .  S
O266        C273   1.258       .  A
O266       Co269   2.005       .  S
Co267      O1161   2.013       .  S
Co267      O1180   2.042       .  S
Co268      O1169   1.957       .  S
Co268       O271   2.030   1_556  S
Co269      O1180   2.020       .  S
Co270       O271   2.046       .  S
O271      Co1176   2.043   1_554  S
O271      Co1178   2.020   1_554  S
C272        C418   1.509       .  S
C272       O1168   1.265   1_554  A
C273        C610   1.471       .  S
C274        C834   1.480       .  S
C275        C479   1.515       .  S
O276        C284   1.299       .  A
O276       Co296   2.107       .  S
O277        C285   1.275       .  A
O277       Co297   2.015       .  S
O278        C286   1.272       .  A
O278       Co298   1.974       .  S
O279        C287   1.252       .  A
O279       Co299   1.967       .  S
O280        C286   1.281       .  A
O280      Co1206   2.035       .  S
O281       C1196   1.262       .  A
O281       Co296   2.004       .  S
O282        C285   1.260       .  A
O282       Co299   1.952       .  S
O283        C284   1.264       .  A
O283       Co298   1.885       .  S
C284        C735   1.480       .  S
C285        C338   1.469       .  S
C286        C642   1.497       .  S
C287        C434   1.473   1_554  S
C287       O1190   1.261       .  A
O288        C301   1.262       .  A
O288      Co1205   1.968       .  S
O289       C1211   1.249       .  A
O289       Co297   1.963       .  S
O290        C303   1.296       .  A
O290       Co298   2.103       .  S
O291        C304   1.267       .  A
O291       Co299   2.017       .  S
O292        C304   1.252       .  A
O292       Co297   1.946       .  S
O293        C303   1.259       .  A
O293       Co296   1.883       .  S
O294        C301   1.277       .  A
O294       Co299   2.037       .  S
O295        C302   1.261       .  A
O295       Co298   2.021       .  S
Co296      O1197   1.961       .  S
Co296      O1209   1.997       .  S
Co297      O1189   2.041   1_554  S
Co297       O300   2.015       .  S
Co298      O1209   2.016       .  S
Co299       O300   2.065       .  S
O300      Co1205   2.001       .  S
O300      Co1207   2.006   1_554  S
C301        C722   1.488       .  S
C302        C351   1.476       .  S
C302       O1198   1.249       .  A
C303        C383   1.469       .  S
C304        C626   1.477       .  S
O305        C313   1.297       .  A
O305       Co325   1.997       .  S
O306        C314   1.268       .  A
O306       Co326   2.009   1_554  S
O307        C315   1.272       .  A
O307       Co327   1.984       .  S
O308        C316   1.262       .  A
O308       Co328   1.996       .  S
O309       C1224   1.270       .  A
O309       Co326   2.016   1_554  S
O310        C316   1.264       .  A
O310      Co1234   2.000   1_554  S
O311        C314   1.251       .  A
O311       Co328   1.932       .  S
O312        C313   1.286       .  A
O312       Co327   1.927       .  S
C313        C447   1.466       .  S
C314        C530   1.462       .  S
C315        C511   1.503       .  S
C315       O1218   1.270       .  A
C316        C882   1.491       .  S
O317       C1239   1.276       .  A
O317       Co325   1.997       .  S
O318        C331   1.255       .  A
O318      Co1235   1.935       .  S
O319        C332   1.241       .  A
O319       Co327   2.025       .  S
O320        C333   1.272   1_554  A
O320       Co328   2.032       .  S
O321        C333   1.248       .  A
O321       Co326   1.946       .  S
O322        C332   1.234       .  A
O322       Co325   1.988       .  S
O323        C330   1.271       .  A
O323       Co328   1.983       .  S
O324        C331   1.269       .  A
O324       Co327   2.016       .  S
Co325      O1219   2.002       .  S
Co325      O1238   1.997       .  S
Co326      O1227   1.936       .  S
Co326       O329   2.021       .  S
Co327      O1238   2.065       .  S
Co328       O329   2.062   1_554  S
O329      Co1234   1.990       .  S
O329      Co1236   2.060       .  S
C330        C367   1.467       .  S
C330       O1226   1.275       .  A
C331        C543   1.450       .  S
C332        C895   1.493       .  S
C333        C335   1.484       .  S
C334        H341   1.085       .  S
C334        C335   1.405   1_554  A
C334        C339   1.406       .  A
C335        C336   1.427       .  A
C336        C337   1.397       .  A
C336        C343   1.511       .  S
C337        H342   1.086       .  S
C337        C338   1.393   1_556  A
C338        C339   1.413       .  A
C339        C340   1.507       .  S
C340        H344   1.111       .  S
C340        H346   1.110       .  S
C340       H1254   1.110       .  S
C343        H348   1.107       .  S
C343        H349   1.111       .  S
C343       H1256   1.110       .  S
H345       C1249   1.110       .  S
H347       C1252   1.110       .  S
C350        H357   1.083       .  S
C350        C351   1.405       .  A
C350        C355   1.405       .  A
C351       C1261   1.406       .  A
C352        C353   1.405       .  A
C352       C1260   1.407   1_556  A
C352        C359   1.505       .  S
C353        H358   1.081       .  S
C353       C1263   1.410   1_556  A
C354        C355   1.416       .  A
C354       C1262   1.407       .  A
C355        C356   1.507       .  S
C356        H360   1.111       .  S
C356        H362   1.110       .  S
C356       H1270   1.104       .  S
C359        H363   1.110       .  S
C359        H365   1.111       .  S
C359       H1273   1.110       .  S
H361       C1265   1.103       .  S
H364       C1268   1.110       .  S
C366       H1282   1.084       .  S
C366        C367   1.407   1_556  A
C366        C371   1.409   1_545  A
C367        C368   1.412       .  A
C368        C369   1.389   1_545  A
C368        C375   1.511       .  S
C369        H374   1.086       .  S
C369        C370   1.399       .  A
C370        C371   1.410   1_554  A
C371       C1281   1.504       .  S
C372       C1280   1.504       .  S
C372        H376   1.111       .  S
C372        H378   1.109       .  S
C372       H1286   1.110       .  S
H373       C1275   1.085       .  S
C375        H379   1.109       .  S
C375        H381   1.111       .  S
C375       H1289   1.108       .  S
H377       C1281   1.110       .  S
H380       C1284   1.108       .  S
C382        H389   1.080       .  S
C382        C383   1.394       .  A
C382        C387   1.388       .  A
C383        C384   1.416       .  A
C384        C385   1.402       .  A
C384        C391   1.507       .  S
C385       H1299   1.084       .  S
C385        C386   1.399       .  A
C386        C387   1.421       .  A
C387        C388   1.515       .  S
C388        H392   1.110       .  S
C388        H394   1.108       .  S
C388       H1302   1.110       .  S
H390       C1294   1.084       .  S
C391        H396   1.109       .  S
C391       H1304   1.110       .  S
C391       H1306   1.111       .  S
H393       C1297   1.109       .  S
H395       C1300   1.110       .  S
H397       C1300   1.111       .  S
C398        H405   1.083       .  S
C398        C399   1.406       .  A
C398        C403   1.405       .  A
C399       C1309   1.418       .  A
C400        C401   1.408       .  A
C400       C1308   1.419   1_554  A
C400        C407   1.500       .  S
C401        H406   1.082       .  S
C401       C1311   1.397   1_554  A
C402        C403   1.418       .  A
C402       C1310   1.398       .  A
C403        C404   1.507       .  S
C404        H408   1.111       .  S
C404        H409   1.110       .  S
C404        H410   1.108       .  S
C407        H411   1.109       .  S
C407        H412   1.109       .  S
C407        H413   1.111       .  S
C414        H421   1.083       .  S
C414        C415   1.400   1_556  A
C414        C419   1.411   1_545  A
C415        C416   1.410       .  A
C416        C417   1.408   1_545  A
C416        C423   1.507       .  S
C417        H422   1.083       .  S
C417        C418   1.412       .  A
C418        C419   1.427   1_554  A
C419       C1329   1.506       .  S
C420       C1328   1.505       .  S
C420        H424   1.111       .  S
C420        H426   1.110       .  S
C420       H1334   1.105       .  S
C423        H427   1.111       .  S
C423        H429   1.111       .  S
C423       H1337   1.110       .  S
H425       C1329   1.104       .  S
H428       C1332   1.110       .  S
C430        H437   1.084       .  S
C430        C431   1.405   1_554  A
C430        C435   1.409   1_655  A
C431        C432   1.432       .  A
C432        C433   1.399   1_655  A
C432        C439   1.511       .  S
C433        H438   1.086       .  S
C433        C434   1.391       .  A
C434        C435   1.414   1_556  A
C435        C436   1.506       .  S
C436        H440   1.111       .  S
C436        H441   1.108       .  S
C436       H1351   1.110       .  S
C439        H443   1.108       .  S
C439        H445   1.110       .  S
C439       H1353   1.110       .  S
H442       C1345   1.110       .  S
H444       C1348   1.110       .  S
C446        H453   1.085       .  S
C446        C447   1.407       .  A
C446        C451   1.410       .  A
C447       C1357   1.414       .  A
C448        C449   1.374       .  A
C448       C1356   1.414   1_554  A
C448        C455   1.515       .  S
C449        H454   1.074       .  S
C449       C1359   1.396   1_554  A
C450        C451   1.410       .  A
C450       C1358   1.405       .  A
C451        C452   1.503       .  S
C452        H456   1.111       .  S
C452        H457   1.109       .  S
C452        H458   1.111       .  S
C455        H459   1.109       .  S
C455        H460   1.110       .  S
C455        H461   1.110       .  S
C462        H469   1.084       .  S
C462        C463   1.401   1_556  A
C462        C467   1.397   1_655  A
C463        C464   1.419       .  A
C464        C465   1.417   1_655  A
C464        C471   1.505       .  S
C465        H470   1.084       .  S
C465        C466   1.410       .  A
C466        C467   1.420   1_554  A
C467        C468   1.507       .  S
C468        H472   1.111       .  S
C468        H473   1.108       .  S
C468       H1383   1.108       .  S
C471        H475   1.110       .  S
C471        H477   1.111       .  S
C471       H1385   1.110       .  S
H474       C1377   1.109       .  S
H476       C1380   1.110       .  S
C478        H485   1.082       .  S
C478        C479   1.403       .  A
C478        C483   1.416       .  A
C479        C480   1.431   1_554  A
C480        C481   1.413       .  A
C480        C487   1.510       .  S
C481        H486   1.084       .  S
C481        C482   1.401   1_556  A
C482        C483   1.431       .  A
C483        C484   1.508       .  S
C484        H488   1.111       .  S
C484        H489   1.110       .  S
C484        H490   1.106       .  S
C487        H492   1.108       .  S
C487       H1400   1.110       .  S
C487       H1402   1.111       .  S
H491       C1396   1.110       .  S
H493       C1396   1.111       .  S
C494        H501   1.084       .  S
C494        C495   1.408       .  A
C494        C499   1.405       .  A
C495        C496   1.421       .  A
C496        C497   1.406       .  A
C496       C1412   1.511       .  S
C497       H1411   1.083       .  S
C497        C498   1.405       .  A
C498        C499   1.411       .  A
C499        C500   1.506       .  S
C500        H504   1.111       .  S
C500        H506   1.111       .  S
C500       H1414   1.109       .  S
H502       C1406   1.083       .  S
C503       C1405   1.506       .  S
C503        H507   1.111       .  S
C503        H509   1.111       .  S
C503       H1417   1.107       .  S
H505       C1409   1.109       .  S
H508       C1412   1.106       .  S
C510        H517   1.102       .  S
C510        C511   1.403       .  A
C510        C515   1.412       .  A
C511        C512   1.422       .  A
C512        C513   1.407       .  A
C512       C1428   1.509       .  S
C513       H1427   1.092       .  S
C513        C514   1.405       .  A
C514        C515   1.421       .  A
C515        C516   1.502       .  S
C516        H520   1.112       .  S
C516        H522   1.105       .  S
C516       H1430   1.109       .  S
H518       C1422   1.089       .  S
C519       C1421   1.509       .  S
C519        H523   1.110       .  S
C519        H525   1.111       .  S
C519       H1433   1.108       .  S
H521       C1425   1.110       .  S
H524       C1428   1.108       .  S
C526        H533   1.085       .  S
C526        C527   1.388       .  A
C526        C531   1.384       .  A
C527        C528   1.410       .  A
C528        C529   1.400       .  A
C528        C535   1.506       .  S
C529        H534   1.085       .  S
C529        C530   1.402       .  A
C530        C531   1.422       .  A
C531        C532   1.507       .  S
C532        H536   1.111       .  S
C532        H537   1.097       .  S
C532        H538   1.098       .  S
C535        H539   1.110       .  S
C535        H540   1.108       .  S
C535        H541   1.111       .  S
C542        H549   1.086       .  S
C542        C543   1.404       .  A
C542        C547   1.390       .  A
C543        C544   1.409       .  A
C544        C545   1.397       .  A
C544        C551   1.508       .  S
C545        H550   1.086       .  S
C545        C546   1.404       .  A
C546        C547   1.401       .  A
C547        C548   1.507       .  S
C548        H552   1.111       .  S
C548        H553   1.110       .  S
C548        H554   1.110       .  S
C551        H555   1.107       .  S
C551        H556   1.111       .  S
C551        H557   1.111       .  S
C558        H565   1.085       .  S
C558        C559   1.399       .  A
C558        C563   1.401       .  A
C559        C560   1.405       .  A
C560        C561   1.392       .  A
C560        C567   1.509       .  S
C561        H566   1.082       .  S
C561        C562   1.405       .  A
C562        C563   1.418       .  A
C563        C564   1.507       .  S
C564        H568   1.111       .  S
C564        H569   1.110       .  S
C564        H570   1.109       .  S
C567        H571   1.110       .  S
C567        H572   1.110       .  S
C567        H573   1.111       .  S
C574        H581   1.079       .  S
C574        C575   1.399       .  A
C574        C579   1.407       .  A
C575        C576   1.416       .  A
C576        C577   1.404       .  A
C576        C583   1.509       .  S
C577        H582   1.084       .  S
C577        C578   1.399       .  A
C578        C579   1.417       .  A
C579        C580   1.507       .  S
C580        H584   1.111       .  S
C580        H585   1.110       .  S
C580        H586   1.110       .  S
C583        H587   1.109       .  S
C583        H588   1.111       .  S
C583        H589   1.111       .  S
C590        H597   1.086       .  S
C590        C591   1.406       .  A
C590        C595   1.412       .  A
C591        C592   1.408       .  A
C592        C593   1.409       .  A
C592        C599   1.504       .  S
C593        H598   1.085       .  S
C593        C594   1.414       .  A
C594        C595   1.419       .  A
C595        C596   1.504       .  S
C596        H600   1.111       .  S
C596        H601   1.110       .  S
C596        H602   1.108       .  S
C599        H603   1.109       .  S
C599        H604   1.108       .  S
C599        H605   1.111       .  S
C606        H613   1.083       .  S
C606        C607   1.405       .  A
C606        C611   1.399       .  A
C607        C608   1.409       .  A
C608        C609   1.396       .  A
C608        C615   1.509       .  S
C609        H614   1.082       .  S
C609        C610   1.407       .  A
C610        C611   1.409       .  A
C611        C612   1.508       .  S
C612        H616   1.111       .  S
C612        H617   1.111       .  S
C612        H618   1.109       .  S
C615        H619   1.109       .  S
C615        H620   1.111       .  S
C615        H621   1.111       .  S
C622        H629   1.084       .  S
C622        C623   1.409       .  A
C622        C627   1.400       .  A
C623        C624   1.416       .  A
C624        C625   1.400       .  A
C624        C631   1.508       .  S
C625        H630   1.086       .  S
C625        C626   1.406       .  A
C626        C627   1.411       .  A
C627        C628   1.508       .  S
C628        H632   1.111       .  S
C628        H633   1.110       .  S
C628        H634   1.110       .  S
C631        H635   1.109       .  S
C631        H636   1.110       .  S
C631        H637   1.111       .  S
C638        H645   1.085       .  S
C638        C639   1.398       .  A
C638        C643   1.406       .  A
C639        C640   1.412       .  A
C640        C641   1.410       .  A
C640        C647   1.506       .  S
C641        H646   1.085       .  S
C641        C642   1.408       .  A
C642        C643   1.424       .  A
C643        C644   1.508       .  S
C644        H648   1.111       .  S
C644        H649   1.110       .  S
C644        H650   1.109       .  S
C647        H651   1.109       .  S
C647        H652   1.110       .  S
C647        H653   1.111       .  S
C654        H661   1.085       .  S
C654        C655   1.394       .  A
C654        C659   1.399       .  A
C655        C656   1.418       .  A
C656        C657   1.408       .  A
C656        C663   1.508       .  S
C657        H662   1.084       .  S
C657        C658   1.403       .  A
C658        C659   1.425       .  A
C659        C660   1.511       .  S
C660        H664   1.111       .  S
C660        H665   1.106       .  S
C660        H666   1.109       .  S
C663        H667   1.107       .  S
C663        H668   1.110       .  S
C663        H669   1.111       .  S
C670        H677   1.083       .  S
C670        C671   1.412       .  A
C670        C675   1.416       .  A
C671        C672   1.422       .  A
C672        C673   1.407       .  A
C672        C679   1.506       .  S
C673        H678   1.081       .  S
C673        C674   1.407       .  A
C674        C675   1.417       .  A
C675        C676   1.504       .  S
C676        H680   1.111       .  S
C676        H681   1.105       .  S
C676        H682   1.110       .  S
C679        H683   1.105       .  S
C679        H684   1.110       .  S
C679        H685   1.111       .  S
C686        H693   1.085       .  S
C686        C687   1.409       .  A
C686        C691   1.401       .  A
C687        C688   1.412       .  A
C688        C689   1.407       .  A
C688        C695   1.506       .  S
C689        H694   1.085       .  S
C689        C690   1.408       .  A
C690        C691   1.409       .  A
C691        C692   1.507       .  S
C692        H696   1.111       .  S
C692        H697   1.110       .  S
C692        H698   1.110       .  S
C695        H699   1.110       .  S
C695        H700   1.111       .  S
C695        H701   1.110   1_655  S
C702        H709   1.085       .  S
C702        C703   1.396       .  A
C702        C707   1.392       .  A
C703        C704   1.410       .  A
C704        C705   1.395       .  A
C704        C711   1.506       .  S
C705        H710   1.085       .  S
C705        C706   1.400       .  A
C706        C707   1.413       .  A
C707        C708   1.509       .  S
C708        H712   1.111       .  S
C708        H713   1.108       .  S
C708        H714   1.109       .  S
C711        H715   1.105       .  S
C711        H716   1.110       .  S
C711        H717   1.110       .  S
C718        H725   1.083       .  S
C718        C719   1.411       .  A
C718        C723   1.405       .  A
C719        C720   1.419       .  A
C720        C721   1.407       .  A
C720        C727   1.504       .  S
C721        H726   1.084       .  S
C721        C722   1.405       .  A
C722        C723   1.412       .  A
C723        C724   1.507       .  S
C724        H728   1.111       .  S
C724        H729   1.109       .  S
C724        H730   1.110       .  S
C727        H731   1.110       .  S
C727        H732   1.107       .  S
C727        H733   1.111       .  S
C734        H741   1.082       .  S
C734        C735   1.402       .  A
C734        C739   1.412       .  A
C735        C736   1.414       .  A
C736        C737   1.394       .  A
C736        C743   1.503       .  S
C737        H742   1.080       .  S
C737        C738   1.399       .  A
C738        C739   1.421       .  A
C739        C740   1.506       .  S
C740        H744   1.111       .  S
C740        H745   1.110       .  S
C740        H746   1.110       .  S
C743        H747   1.108       .  S
C743        H748   1.106       .  S
C743        H749   1.111       .  S
C750        H757   1.084       .  S
C750        C751   1.400       .  A
C750        C755   1.401       .  A
C751        C752   1.409       .  A
C752        C753   1.400       .  A
C752        C759   1.507       .  S
C753        H758   1.083       .  S
C753        C754   1.406       .  A
C754        C755   1.418       .  A
C755        C756   1.509       .  S
C756        H760   1.111       .  S
C756        H761   1.109       .  S
C756        H762   1.111       .  S
C759        H763   1.110       .  S
C759        H764   1.109       .  S
C759        H765   1.111       .  S
C766        H773   1.085       .  S
C766        C767   1.400       .  A
C766        C771   1.396       .  A
C767        C768   1.412       .  A
C768        C769   1.404       .  A
C768        C775   1.505       .  S
C769        H774   1.085       .  S
C769        C770   1.401       .  A
C770        C771   1.406       .  A
C771        C772   1.508       .  S
C772        H776   1.110       .  S
C772        H777   1.110       .  S
C772        H778   1.108       .  S
C775        H779   1.110       .  S
C775        H780   1.110       .  S
C775        H781   1.111       .  S
C782        H789   1.082       .  S
C782        C783   1.410       .  A
C782        C787   1.410       .  A
C783        C784   1.421       .  A
C784        C785   1.398       .  A
C784        C791   1.509       .  S
C785        H790   1.084       .  S
C785        C786   1.400       .  A
C786        C787   1.415       .  A
C787        C788   1.508       .  S
C788        H792   1.111       .  S
C788        H793   1.110       .  S
C788        H794   1.111       .  S
C791        H795   1.110       .  S
C791        H796   1.110       .  S
C791        H797   1.111       .  S
C798        H805   1.085       .  S
C798        C799   1.407       .  A
C798        C803   1.404       .  A
C799        C800   1.415       .  A
C800        C801   1.399       .  A
C800        C807   1.506       .  S
C801        H806   1.084       .  S
C801        C802   1.407       .  A
C802        C803   1.414       .  A
C803        C804   1.507       .  S
C804        H808   1.111       .  S
C804        H809   1.110       .  S
C804        H810   1.109       .  S
C807        H811   1.107       .  S
C807        H812   1.110       .  S
C807        H813   1.111       .  S
C814        H821   1.084       .  S
C814        C815   1.409       .  A
C814        C819   1.405       .  A
C815        C816   1.412       .  A
C816        C817   1.397       .  A
C816        C823   1.509       .  S
C817        H822   1.085       .  S
C817        C818   1.406       .  A
C818        C819   1.409       .  A
C819        C820   1.505       .  S
C820        H824   1.111       .  S
C820        H825   1.110       .  S
C820        H826   1.108       .  S
C823        H827   1.110       .  S
C823        H828   1.110       .  S
C823        H829   1.111       .  S
C830        H837   1.084       .  S
C830        C831   1.402       .  A
C830        C835   1.405       .  A
C831        C832   1.413       .  A
C832        C833   1.409       .  A
C832        C839   1.507       .  S
C833        H838   1.085       .  S
C833        C834   1.406       .  A
C834        C835   1.414       .  A
C835        C836   1.507       .  S
C836        H840   1.111       .  S
C836        H841   1.109       .  S
C836        H842   1.108       .  S
C839        H843   1.110       .  S
C839        H844   1.110       .  S
C839        H845   1.111       .  S
C846        H853   1.083       .  S
C846        C847   1.404       .  A
C846        C851   1.415       .  A
C847        C848   1.415       .  A
C848        C849   1.405       .  A
C848        C855   1.508       .  S
C849        H854   1.083       .  S
C849        C850   1.408       .  A
C850        C851   1.421       .  A
C851        C852   1.498       .  S
C852        H856   1.111       .  S
C852        H857   1.108       .  S
C852        H858   1.108       .  S
C855        H859   1.109       .  S
C855        H860   1.110       .  S
C855        H861   1.111       .  S
C862        H869   1.081       .  S
C862        C863   1.392       .  A
C862        C867   1.396       .  A
C863        C864   1.423       .  A
C864        C865   1.416       .  A
C864        C871   1.508       .  S
C865        H870   1.083       .  S
C865        C866   1.411       .  A
C866        C867   1.426       .  A
C867        C868   1.509       .  S
C868        H872   1.110       .  S
C868        H873   1.105       .  S
C868        H874   1.110       .  S
C871        H875   1.109       .  S
C871        H876   1.111       .  S
C871        H877   1.111       .  S
C878        H885   1.085       .  S
C878        C879   1.401       .  A
C878        C883   1.409       .  A
C879        C880   1.409       .  A
C880        C881   1.401       .  A
C880        C887   1.507       .  S
C881        H886   1.085       .  S
C881        C882   1.407       .  A
C882        C883   1.417       .  A
C883        C884   1.501       .  S
C884        H888   1.111       .  S
C884        H889   1.102       .  S
C884        H890   1.110       .  S
C887        H891   1.110       .  S
C887        H892   1.109       .  S
C887        H893   1.111       .  S
C894        H901   1.084       .  S
C894        C895   1.401       .  A
C894        C899   1.410       .  A
C895        C896   1.424       .  A
C896        C897   1.403       .  A
C896        C903   1.511       .  S
C897        H902   1.083       .  S
C897        C898   1.403       .  A
C898        C899   1.427       .  A
C899        C900   1.503       .  S
C900        H904   1.111       .  S
C900        H905   1.108       .  S
C900        H906   1.109       .  S
C903        H907   1.109       .  S
C903        H908   1.107       .  S
C903        H909   1.111       .  S
C910        N928   1.362       .  A
C910        C947   1.466       .  S
C910       C1807   1.506       .  S
N911        N928   1.327       .  A
N911        N933   1.317       .  A
N911       Co948   2.114       .  S
C912        N937   1.345       .  A
C912        C950   1.469       .  S
C912        H957   1.081       .  S
H913        C954   1.079       .  S
C914        N938   1.336       .  A
C914        C918   1.447       .  S
C914        H943   1.075       .  S
Co915       N933   2.071   1_565  S
Co915       N923   2.081       .  S
Co915       N955   2.082   1_565  S
Co915       N931   2.082       .  S
Co915      Cl959   2.443   1_565  S
N916        C954   1.339       .  A
N916        N923   1.318       .  A
N916       Co917   2.080       .  S
Co917       N920   2.105       .  S
Co917       N937   2.093       .  S
Co917       N924   2.090       .  S
Co917      Cl959   2.457   1_565  S
C918        N956   1.356       .  A
C918       C1740   1.478       .  S
N919        N926   1.320       .  A
N919        N949   1.322       .  A
N919       Co952   2.065       .  S
N920        N938   1.319       .  A
N920        N956   1.331       .  A
N921        C950   1.349       .  A
N921        N931   1.321       .  A
H922        C947   1.075       .  S
N923        N944   1.322       .  A
N924        N942   1.318       .  A
N924        N929   1.324       .  A
C925        N929   1.351       .  A
C925        C953   1.455       .  S
C925       C1724   1.479       .  S
N926        C941   1.347       .  A
N926       Co948   2.119       .  S
C927        N955   1.338       .  A
C927        C930   1.455       .  S
C927        H961   1.079       .  S
C930        N951   1.351       .  A
C930       C1788   1.477       .  S
N931        N937   1.318       .  A
N932        C958   1.350       .  A
N932        N934   1.319       .  A
N932       Co948   2.108       .  S
N933        C947   1.337       .  A
N934        N962   1.321       .  A
N934       Co952   2.073       .  S
H935        C958   1.080       .  S
H936        C953   1.080       .  S
N938       Co952   2.068   1_565  S
N939        N951   1.328       .  A
N939        N955   1.322       .  A
N939       Co948   2.099       .  S
C940        N944   1.350       .  A
C940        C954   1.467       .  S
C940       C1708   1.483       .  S
C941        C960   1.478       .  S
C941        H945   1.081       .  S
N942        C953   1.337       .  A
N942       Co952   2.063   1_565  S
C946        N962   1.345       .  A
C946        C958   1.470       .  S
C946       C1756   1.487       .  S
Co948      Cl959   2.460       .  S
N949        C960   1.343       .  A
C950       C1692   1.495       .  S
Co952      Cl959   2.448       .  S
C960       C1772   1.494       .  S
C963        N981   1.343       .  A
C963       C1000   1.460       .  S
C963       C1676   1.459       .  S
N964        N981   1.320       .  A
N964        N986   1.322       .  A
N964      Co1001   2.074       .  S
C965        N990   1.335       .  A
C965       C1003   1.448       .  S
C965       H1010   1.080       .  S
H966       C1007   1.072       .  S
C967        N991   1.338       .  A
C967        C971   1.456       .  S
C967        H996   1.082       .  S
Co968       N986   2.095   1_655  S
Co968       N976   2.105       .  S
Co968      N1008   2.078   1_655  S
Co968       N984   2.114       .  S
Co968     Cl1012   2.461   1_655  S
N969       C1007   1.343       .  A
N969        N976   1.318       .  A
N969       Co970   2.109       .  S
Co970       N973   2.061       .  S
Co970       N990   2.053       .  S
Co970       N977   2.108       .  S
Co970     Cl1012   2.447   1_655  S
C971       N1009   1.343       .  A
C971       C1612   1.462       .  S
N972        N979   1.320       .  A
N972       N1002   1.326       .  A
N972      Co1005   2.081       .  S
N973        N991   1.319       .  A
N973       N1009   1.321       .  A
N974       C1003   1.359       .  A
N974        N984   1.329       .  A
H975       C1000   1.081       .  S
N976        N997   1.330       .  A
N977        N995   1.319       .  A
N977        N982   1.329       .  A
C978        N982   1.355       .  A
C978       C1006   1.453       .  S
C978       C1599   1.486       .  S
N979        C994   1.339       .  A
N979      Co1001   2.095       .  S
C980       N1008   1.336       .  A
C980        C983   1.455       .  S
C980       H1014   1.080       .  S
C983       N1004   1.349       .  A
C983       C1660   1.471       .  S
N984        N990   1.318       .  A
N985       C1011   1.345       .  A
N985        N987   1.315       .  A
N985      Co1001   2.093       .  S
N986       C1000   1.344       .  A
N987       N1015   1.321       .  A
N987      Co1005   2.077       .  S
H988       C1011   1.076       .  S
H989       C1006   1.081       .  S
N991      Co1005   2.076   1_655  S
N992       N1004   1.324       .  A
N992       N1008   1.322       .  A
N992      Co1001   2.083       .  S
C993        N997   1.359       .  A
C993       C1007   1.475       .  S
C993       C1580   1.514       .  S
C994       C1013   1.465       .  S
C994        H998   1.082       .  S
N995       C1006   1.339       .  A
N995      Co1005   2.072   1_655  S
C999       N1015   1.350       .  A
C999       C1011   1.477       .  S
C999       C1628   1.501       .  S
Co1001    Cl1012   2.444       .  S
N1002      C1013   1.351       .  A
C1003      C1564   1.479       .  S
Co1005    Cl1012   2.458       .  S
C1013      C1647   1.488       .  S
C1016      N1034   1.355       .  A
C1016      C1053   1.460       .  S
C1016      C1548   1.486       .  S
N1017      N1034   1.328       .  A
N1017      N1039   1.323       .  A
N1017     Co1054   2.122       .  S
C1018      N1043   1.333       .  A
C1018      C1056   1.449       .  S
C1018      H1063   1.080       .  S
H1019      C1060   1.081       .  S
C1020      N1044   1.348       .  A
C1020      C1024   1.471       .  S
C1020      H1049   1.081       .  S
Co1021     N1039   2.085       .  S
Co1021     N1029   2.079       .  S
Co1021     N1061   2.057       .  S
Co1021     N1037   2.068       .  S
Co1021    Cl1065   2.446       .  S
N1022      C1060   1.330       .  A
N1022      N1029   1.316       .  A
N1022     Co1023   2.036       .  S
Co1023     N1026   2.066       .  S
Co1023     N1043   2.059       .  S
Co1023     N1030   2.049       .  S
Co1023    Cl1065   2.449       .  S
C1024      N1062   1.341       .  A
C1024      C1487   1.479       .  S
N1025      N1032   1.318       .  A
N1025      N1055   1.323       .  A
N1025     Co1058   2.069       .  S
N1026      N1044   1.321       .  A
N1026      N1062   1.321       .  A
N1027      C1056   1.342       .  A
N1027      N1037   1.321       .  A
H1028      C1053   1.079       .  S
N1029      N1050   1.323       .  A
N1030      N1048   1.315       .  A
N1030      N1035   1.320       .  A
C1031      N1035   1.342       .  A
C1031      C1059   1.454       .  S
C1031      C1468   1.460       .  S
N1032      C1047   1.334       .  A
N1032     Co1054   2.066       .  S
C1033      N1061   1.333       .  A
C1033      C1036   1.457       .  S
C1033      H1067   1.082       .  S
C1036      N1057   1.354       .  A
C1036      C1532   1.487       .  S
N1037      N1043   1.320       .  A
N1038      C1064   1.351       .  A
N1038      N1040   1.322       .  A
N1038     Co1054   2.126       .  S
N1039      C1053   1.343       .  A
N1040      N1068   1.322       .  A
N1040     Co1058   2.087       .  S
H1041      C1064   1.079       .  S
H1042      C1059   1.082       .  S
N1044     Co1058   2.116       .  S
N1045      N1057   1.325       .  A
N1045      N1061   1.314       .  A
N1045     Co1054   2.082       .  S
C1046      N1050   1.351       .  A
C1046      C1060   1.439       .  S
C1046      C1455   1.449       .  S
C1047      C1066   1.453       .  S
C1047      H1051   1.082       .  S
N1048      C1059   1.341       .  A
N1048     Co1058   2.078       .  S
C1052      N1068   1.348       .  A
C1052      C1064   1.482       .  S
C1052      C1503   1.508       .  S
Co1054    Cl1065   2.444       .  S
N1055      C1066   1.349       .  A
C1056      C1436   1.450       .  S
Co1058    Cl1065   2.446       .  S
C1066      C1516   1.471       .  S
O1069      C1077   1.294       .  A
O1069     Co1089   1.990       .  S
O1070      C1078   1.260       .  A
O1070     Co1090   1.963       .  S
O1071      C1079   1.263       .  A
O1072     Co1092   2.024       .  S
O1073      C1079   1.250       .  A
O1073     Co1090   1.966       .  S
O1074      C1080   1.266       .  A
O1074     Co1089   1.995   1_554  S
O1075      C1078   1.260       .  A
O1075     Co1092   1.984       .  S
O1076      C1077   1.296       .  A
O1076     Co1091   2.001       .  S
C1077      C1407   1.497       .  S
C1078      C1471   1.479       .  S
C1079      C1567   1.486       .  S
C1080      C1423   1.509       .  S
O1081      C1094   1.284       .  A
O1081     Co1089   2.049       .  S
O1082      C1095   1.279       .  A
O1082     Co1090   2.001       .  S
O1083      C1096   1.236       .  A
O1083     Co1091   2.003       .  S
O1084      C1097   1.271       .  A
O1084     Co1092   1.990       .  S
O1085      C1097   1.267       .  A
O1085     Co1090   2.012       .  S
O1086      C1096   1.247       .  A
O1086     Co1089   2.031       .  S
O1087      C1094   1.261       .  A
O1088     Co1091   2.005   1_554  S
Co1090     O1093   2.069       .  S
Co1092     O1093   2.064       .  S
C1094      C1484   1.474       .  S
C1095      C1372   1.495       .  S
C1096      C1583   1.510       .  S
C1097      C1391   1.515       .  S
O1098      C1106   1.292       .  A
O1098     Co1118   1.919       .  S
O1099      C1107   1.259       .  A
O1099     Co1119   1.953       .  S
O1100      C1108   1.255       .  A
O1101     Co1121   2.046       .  S
O1102      C1108   1.262       .  A
O1102     Co1119   1.994       .  S
O1103      C1109   1.269       .  A
O1103     Co1118   1.984   1_554  S
O1104      C1107   1.271       .  A
O1104     Co1121   2.029       .  S
O1105      C1106   1.297       .  A
O1105     Co1120   1.988       .  S
C1106      C1359   1.453       .  S
C1107      C1596   1.485       .  S
C1108      C1759   1.501       .  S
C1109      C1404   1.512       .  S
O1110      C1123   1.277       .  A
O1110     Co1118   2.039       .  S
O1111      C1124   1.275       .  A
O1111     Co1119   1.987       .  S
O1112      C1125   1.241       .  A
O1112     Co1120   2.008       .  S
O1113      C1126   1.241       .  A
O1113     Co1121   1.940       .  S
O1114      C1126   1.273       .  A
O1114     Co1119   2.059       .  S
O1115      C1125   1.235       .  A
O1115     Co1118   1.999       .  S
O1116      C1123   1.252       .  A
O1117     Co1120   2.025   1_554  S
Co1119     O1122   2.065       .  S
Co1121     O1122   2.067       .  S
C1123      C1615   1.466       .  S
C1124      C1324   1.482       .  S
C1125      C1775   1.501       .  S
C1126      C1340   1.498       .  S
O1127      C1135   1.277       .  A
O1127     Co1147   2.020       .  S
O1128      C1136   1.260       .  A
O1128     Co1148   1.996       .  S
O1129      C1137   1.265       .  A
O1130     Co1150   1.920       .  S
O1131      C1137   1.275       .  A
O1131     Co1148   2.011       .  S
O1132      C1138   1.277   1_556  A
O1132     Co1147   2.002       .  S
O1133      C1136   1.258       .  A
O1133     Co1150   1.983       .  S
O1134      C1135   1.273       .  A
O1134     Co1149   1.958       .  S
C1135      C1311   1.480       .  S
C1136      C1663   1.483       .  S
C1137      C1695   1.484       .  S
C1138      C1295   1.460       .  S
O1139      C1152   1.249       .  A
O1139     Co1147   1.954       .  S
O1140      C1153   1.272       .  A
O1140     Co1148   1.994       .  S
O1141      C1154   1.258       .  A
O1141     Co1149   1.991       .  S
O1142      C1155   1.276       .  A
O1142     Co1150   2.004       .  S
O1143      C1155   1.282       .  A
O1143     Co1148   2.016       .  S
O1144      C1154   1.254       .  A
O1144     Co1147   1.956       .  S
O1145      C1152   1.257       .  A
O1146     Co1149   1.967   1_554  S
Co1148     O1151   2.043       .  S
Co1150     O1151   1.916       .  S
C1152      C1679   1.451       .  S
C1153      C1279   1.465       .  S
C1154      C1711   1.481       .  S
C1155      C1375   1.498       .  S
O1156      C1164   1.292   1_554  A
O1156     Co1176   2.100   1_554  S
O1157      C1165   1.277       .  A
O1157     Co1177   2.053       .  S
O1158      C1166   1.265       .  A
O1158     Co1178   1.960   1_554  S
O1159      C1167   1.254       .  A
O1159     Co1179   1.956       .  S
O1160     Co1177   2.033       .  S
O1161      C1167   1.265       .  A
O1162      C1165   1.251       .  A
O1162     Co1179   1.949       .  S
O1163      C1164   1.263       .  A
O1163     Co1178   1.903       .  S
C1164      C1308   1.493       .  S
C1165      C1500   1.490       .  S
C1166      C1263   1.483       .  S
C1167      C1727   1.477       .  S
O1168     Co1176   1.971       .  S
O1169      C1182   1.248       .  A
O1170      C1183   1.288       .  A
O1170     Co1178   2.080       .  S
O1171      C1184   1.281       .  A
O1171     Co1179   2.085       .  S
O1172      C1184   1.243       .  A
O1172     Co1177   1.941       .  S
O1173      C1183   1.270       .  A
O1173     Co1176   1.920       .  S
O1174      C1181   1.280       .  A
O1174     Co1179   2.034       .  S
O1175      C1182   1.259       .  A
O1175     Co1178   2.005       .  S
Co1177     O1180   2.029       .  S
Co1179     O1180   2.048       .  S
C1181      C1327   1.509       .  S
C1182      C1519   1.473       .  S
C1183      C1743   1.480       .  S
C1184      C1388   1.518       .  S
O1185      C1193   1.303       .  A
O1185     Co1205   2.118   1_556  S
O1186      C1194   1.274       .  A
O1186     Co1206   2.013       .  S
O1187      C1195   1.269       .  A
O1187     Co1207   1.970       .  S
O1188      C1196   1.253       .  A
O1188     Co1208   1.967       .  S
O1189      C1195   1.281       .  A
O1190     Co1205   2.000       .  S
O1191      C1194   1.262       .  A
O1191     Co1208   1.960       .  S
O1192      C1193   1.259       .  A
O1192     Co1207   1.867       .  S
C1193      C1644   1.496       .  S
C1194      C1247   1.473       .  S
C1195      C1551   1.496       .  S
C1196      C1343   1.474       .  S
O1197      C1210   1.260       .  A
O1198     Co1206   1.961       .  S
O1199      C1212   1.295   1_556  A
O1199     Co1207   2.102       .  S
O1200      C1213   1.267       .  A
O1200     Co1208   2.015       .  S
O1201      C1213   1.253       .  A
O1201     Co1206   1.946       .  S
O1202      C1212   1.258       .  A
O1202     Co1205   1.877       .  S
O1203      C1210   1.278       .  A
O1203     Co1208   2.044       .  S
O1204      C1211   1.261   1_556  A
O1204     Co1207   2.018       .  S
Co1206     O1209   2.008       .  S
Co1208     O1209   2.064       .  S
C1210      C1631   1.490       .  S
C1211      C1260   1.477       .  S
C1212      C1292   1.459       .  S
C1213      C1535   1.476       .  S
O1214      C1222   1.295       .  A
O1214     Co1234   1.987       .  S
O1215      C1223   1.267       .  A
O1215     Co1235   2.011       .  S
O1216      C1224   1.274       .  A
O1216     Co1236   1.987   1_554  S
O1217      C1225   1.263       .  A
O1217     Co1237   1.995       .  S
O1218     Co1235   2.014       .  S
O1219      C1225   1.265       .  A
O1220      C1223   1.250       .  A
O1220     Co1237   1.931       .  S
O1221      C1222   1.285       .  A
O1221     Co1236   1.916       .  S
C1222      C1356   1.453       .  S
C1223      C1439   1.464       .  S
C1224      C1420   1.508       .  S
C1225      C1791   1.494       .  S
O1226     Co1234   1.996   1_554  S
O1227      C1240   1.256       .  A
O1228      C1241   1.241       .  A
O1228     Co1236   2.027       .  S
O1229      C1242   1.272       .  A
O1229     Co1237   2.037       .  S
O1230      C1242   1.248       .  A
O1230     Co1235   1.945       .  S
O1231      C1241   1.235       .  A
O1231     Co1234   1.989       .  S
O1232      C1239   1.271       .  A
O1232     Co1237   1.983       .  S
O1233      C1240   1.268       .  A
O1233     Co1236   2.010       .  S
Co1235     O1238   2.026       .  S
Co1237     O1238   2.064       .  S
C1239      C1276   1.468       .  S
C1240      C1452   1.449       .  S
C1241      C1804   1.494       .  S
C1242      C1244   1.486       .  S
C1243      H1250   1.084       .  S
C1243      C1244   1.405       .  A
C1243      C1248   1.408       .  A
C1244      C1245   1.427       .  A
C1245      C1246   1.398       .  A
C1245      C1252   1.512       .  S
C1246      H1251   1.085       .  S
C1246      C1247   1.395       .  A
C1247      C1248   1.414       .  A
C1248      C1249   1.506       .  S
C1249      H1253   1.111       .  S
C1249      H1255   1.110       .  S
C1252      H1257   1.107       .  S
C1252      H1258   1.111       .  S
C1259      H1266   1.082       .  S
C1259      C1260   1.405       .  A
C1259      C1264   1.404       .  A
C1261      C1262   1.401       .  A
C1261      C1268   1.499       .  S
C1262      H1267   1.081       .  S
C1263      C1264   1.415       .  A
C1264      C1265   1.507       .  S
C1265      H1269   1.111       .  S
C1265      H1271   1.110       .  S
C1268      H1272   1.109       .  S
C1268      H1274   1.111       .  S
C1275      C1276   1.407       .  A
C1275      C1280   1.409   1_545  A
C1276      C1277   1.413       .  A
C1277      C1278   1.388   1_545  A
C1277      C1284   1.511       .  S
C1278      H1283   1.088       .  S
C1278      C1279   1.398       .  A
C1279      C1280   1.410       .  A
C1281      H1285   1.111       .  S
C1281      H1287   1.108       .  S
C1284      H1288   1.109       .  S
C1284      H1290   1.111       .  S
C1291      H1298   1.083       .  S
C1291      C1292   1.394   1_556  A
C1291      C1296   1.391       .  A
C1292      C1293   1.416       .  A
C1293      C1294   1.399       .  A
C1293      C1300   1.507       .  S
C1294      C1295   1.396       .  A
C1295      C1296   1.423   1_554  A
C1296      C1297   1.514       .  S
C1297      H1301   1.111       .  S
C1297      H1303   1.108       .  S
C1300      H1305   1.109       .  S
C1307      H1314   1.083       .  S
C1307      C1308   1.406       .  A
C1307      C1312   1.404       .  A
C1309      C1310   1.409       .  A
C1309      C1316   1.500       .  S
C1310      H1315   1.083       .  S
C1311      C1312   1.418       .  A
C1312      C1313   1.507       .  S
C1313      H1317   1.111       .  S
C1313      H1318   1.110       .  S
C1313      H1319   1.108       .  S
C1316      H1320   1.109       .  S
C1316      H1321   1.110       .  S
C1316      H1322   1.111       .  S
C1323      H1330   1.084       .  S
C1323      C1324   1.399       .  A
C1323      C1328   1.411   1_545  A
C1324      C1325   1.409       .  A
C1325      C1326   1.408   1_545  A
C1325      C1332   1.507       .  S
C1326      H1331   1.083       .  S
C1326      C1327   1.413       .  A
C1327      C1328   1.426       .  A
C1329      H1333   1.111       .  S
C1329      H1335   1.110       .  S
C1332      H1336   1.111       .  S
C1332      H1338   1.111       .  S
C1339      H1346   1.083       .  S
C1339      C1340   1.405       .  A
C1339      C1344   1.409   1_655  A
C1340      C1341   1.433       .  A
C1341      C1342   1.402   1_655  A
C1341      C1348   1.510       .  S
C1342      H1347   1.085       .  S
C1342      C1343   1.392       .  A
C1343      C1344   1.413       .  A
C1344      C1345   1.506       .  S
C1345      H1349   1.111       .  S
C1345      H1350   1.109       .  S
C1348      H1352   1.108       .  S
C1348      H1354   1.111       .  S
C1355      H1362   1.086       .  S
C1355      C1356   1.406       .  A
C1355      C1360   1.404       .  A
C1357      C1358   1.383       .  A
C1357      C1364   1.516       .  S
C1358      H1363   1.072       .  S
C1359      C1360   1.408       .  A
C1360      C1361   1.505       .  S
C1361      H1365   1.111       .  S
C1361      H1366   1.110       .  S
C1361      H1367   1.111       .  S
C1364      H1368   1.108       .  S
C1364      H1369   1.110       .  S
C1364      H1370   1.110       .  S
C1371      H1378   1.082       .  S
C1371      C1372   1.403       .  A
C1371      C1376   1.400   1_655  A
C1372      C1373   1.418       .  A
C1373      C1374   1.417   1_655  A
C1373      C1380   1.506       .  S
C1374      H1379   1.083       .  S
C1374      C1375   1.409       .  A
C1375      C1376   1.420       .  A
C1376      C1377   1.509       .  S
C1377      H1381   1.111       .  S
C1377      H1382   1.108       .  S
C1380      H1384   1.111       .  S
C1380      H1386   1.111       .  S
C1387      H1394   1.083       .  S
C1387      C1388   1.403       .  A
C1387      C1392   1.417       .  A
C1388      C1389   1.434       .  A
C1389      C1390   1.413       .  A
C1389      C1396   1.509       .  S
C1390      H1395   1.084       .  S
C1390      C1391   1.400       .  A
C1391      C1392   1.431       .  A
C1392      C1393   1.508       .  S
C1393      H1397   1.111       .  S
C1393      H1398   1.110       .  S
C1393      H1399   1.107       .  S
C1396      H1401   1.106       .  S
C1403      H1410   1.083       .  S
C1403      C1404   1.417   1_556  A
C1403      C1408   1.410       .  A
C1404      C1405   1.419       .  A
C1405      C1406   1.416       .  A
C1406      C1407   1.409   1_554  A
C1407      C1408   1.410       .  A
C1408      C1409   1.508       .  S
C1409      H1413   1.111       .  S
C1409      H1415   1.111       .  S
C1412      H1416   1.111       .  S
C1412      H1418   1.111       .  S
C1419      H1426   1.092       .  S
C1419      C1420   1.405       .  A
C1419      C1424   1.414       .  A
C1420      C1421   1.422       .  A
C1421      C1422   1.409       .  A
C1422      C1423   1.407       .  A
C1423      C1424   1.422       .  A
C1424      C1425   1.503       .  S
C1425      H1429   1.111       .  S
C1425      H1431   1.105       .  S
C1428      H1432   1.109       .  S
C1428      H1434   1.112       .  S
C1435      H1442   1.085       .  S
C1435      C1436   1.388       .  A
C1435      C1440   1.385       .  A
C1436      C1437   1.410       .  A
C1437      C1438   1.400       .  A
C1437      C1444   1.505       .  S
C1438      H1443   1.084       .  S
C1438      C1439   1.402       .  A
C1439      C1440   1.422       .  A
C1440      C1441   1.506       .  S
C1441      H1445   1.111       .  S
C1441      H1446   1.097       .  S
C1441      H1447   1.099       .  S
C1444      H1448   1.110       .  S
C1444      H1449   1.108       .  S
C1444      H1450   1.111       .  S
C1451      H1458   1.086       .  S
C1451      C1452   1.404       .  A
C1451      C1456   1.390       .  A
C1452      C1453   1.410       .  A
C1453      C1454   1.396       .  A
C1453      C1460   1.509       .  S
C1454      H1459   1.086       .  S
C1454      C1455   1.404       .  A
C1455      C1456   1.402       .  A
C1456      C1457   1.507       .  S
C1457      H1461   1.111       .  S
C1457      H1462   1.110       .  S
C1457      H1463   1.110       .  S
C1460      H1464   1.106       .  S
C1460      H1465   1.111       .  S
C1460      H1466   1.111       .  S
C1467      H1474   1.084       .  S
C1467      C1468   1.399       .  A
C1467      C1472   1.402       .  A
C1468      C1469   1.407       .  A
C1469      C1470   1.394       .  A
C1469      C1476   1.508       .  S
C1470      H1475   1.083       .  S
C1470      C1471   1.405       .  A
C1471      C1472   1.419       .  A
C1472      C1473   1.507       .  S
C1473      H1477   1.110       .  S
C1473      H1478   1.110       .  S
C1473      H1479   1.109       .  S
C1476      H1480   1.110       .  S
C1476      H1481   1.110       .  S
C1476      H1482   1.111       .  S
C1483      H1490   1.079       .  S
C1483      C1484   1.399       .  A
C1483      C1488   1.407       .  A
C1484      C1485   1.416       .  A
C1485      C1486   1.403       .  A
C1485      C1492   1.509       .  S
C1486      H1491   1.084       .  S
C1486      C1487   1.399       .  A
C1487      C1488   1.417       .  A
C1488      C1489   1.507       .  S
C1489      H1493   1.110       .  S
C1489      H1494   1.110       .  S
C1489      H1495   1.110       .  S
C1492      H1496   1.109       .  S
C1492      H1497   1.111       .  S
C1492      H1498   1.111       .  S
C1499      H1506   1.086       .  S
C1499      C1500   1.407       .  A
C1499      C1504   1.413       .  A
C1500      C1501   1.408       .  A
C1501      C1502   1.409       .  A
C1501      C1508   1.505       .  S
C1502      H1507   1.085       .  S
C1502      C1503   1.415       .  A
C1503      C1504   1.419       .  A
C1504      C1505   1.504       .  S
C1505      H1509   1.111       .  S
C1505      H1510   1.110       .  S
C1505      H1511   1.108       .  S
C1508      H1512   1.109       .  S
C1508      H1513   1.108       .  S
C1508      H1514   1.111       .  S
C1515      H1522   1.084       .  S
C1515      C1516   1.405       .  A
C1515      C1520   1.400       .  A
C1516      C1517   1.411       .  A
C1517      C1518   1.397       .  A
C1517      C1524   1.509       .  S
C1518      H1523   1.085       .  S
C1518      C1519   1.407       .  A
C1519      C1520   1.411       .  A
C1520      C1521   1.508       .  S
C1521      H1525   1.111       .  S
C1521      H1526   1.111       .  S
C1521      H1527   1.109       .  S
C1524      H1528   1.109       .  S
C1524      H1529   1.110       .  S
C1524      H1530   1.111       .  S
C1531      H1538   1.084       .  S
C1531      C1532   1.409       .  A
C1531      C1536   1.399       .  A
C1532      C1533   1.416       .  A
C1533      C1534   1.400       .  A
C1533      C1540   1.508       .  S
C1534      H1539   1.087       .  S
C1534      C1535   1.405       .  A
C1535      C1536   1.410       .  A
C1536      C1537   1.509       .  S
C1537      H1541   1.111       .  S
C1537      H1542   1.110       .  S
C1537      H1543   1.110       .  S
C1540      H1544   1.109       .  S
C1540      H1545   1.110       .  S
C1540      H1546   1.111       .  S
C1547      H1554   1.085       .  S
C1547      C1548   1.400       .  A
C1547      C1552   1.408       .  A
C1548      C1549   1.415       .  A
C1549      C1550   1.409       .  A
C1549      C1556   1.506       .  S
C1550      H1555   1.085       .  S
C1550      C1551   1.407       .  A
C1551      C1552   1.422       .  A
C1552      C1553   1.507       .  S
C1553      H1557   1.111       .  S
C1553      H1558   1.110       .  S
C1553      H1559   1.108       .  S
C1556      H1560   1.109       .  S
C1556      H1561   1.110       .  S
C1556      H1562   1.111       .  S
C1563      H1570   1.084       .  S
C1563      C1564   1.395       .  A
C1563      C1568   1.400       .  A
C1564      C1565   1.419       .  A
C1565      C1566   1.409       .  A
C1565      C1572   1.508       .  S
C1566      H1571   1.084       .  S
C1566      C1567   1.404       .  A
C1567      C1568   1.425       .  A
C1568      C1569   1.511       .  S
C1569      H1573   1.111       .  S
C1569      H1574   1.107       .  S
C1569      H1575   1.109       .  S
C1572      H1576   1.107       .  S
C1572      H1577   1.110       .  S
C1572      H1578   1.111       .  S
C1579      H1586   1.083       .  S
C1579      C1580   1.413       .  A
C1579      C1584   1.418       .  A
C1580      C1581   1.422       .  A
C1581      C1582   1.408       .  A
C1581      C1588   1.506       .  S
C1582      H1587   1.081       .  S
C1582      C1583   1.407       .  A
C1583      C1584   1.418       .  A
C1584      C1585   1.504       .  S
C1585      H1589   1.111       .  S
C1585      H1590   1.106       .  S
C1585      H1591   1.110       .  S
C1588      H1592   1.103       .  S
C1588      H1593   1.110       .  S
C1588      H1594   1.111       .  S
C1595      H1602   1.085       .  S
C1595      C1596   1.407       .  A
C1595      C1600   1.402       .  A
C1596      C1597   1.413       .  A
C1597      C1598   1.409       .  A
C1597      C1604   1.506       .  S
C1598      H1603   1.085       .  S
C1598      C1599   1.410       .  A
C1599      C1600   1.411       .  A
C1600      C1601   1.507       .  S
C1601      H1605   1.111       .  S
C1601      H1606   1.110       .  S
C1601      H1607   1.110       .  S
C1604      H1608   1.110       .  S
C1604      H1609   1.111       .  S
C1604      H1610   1.110   1_655  S
C1611      H1618   1.085       .  S
C1611      C1612   1.395       .  A
C1611      C1616   1.395       .  A
C1612      C1613   1.413       .  A
C1613      C1614   1.400       .  A
C1613      C1620   1.504       .  S
C1614      H1619   1.085       .  S
C1614      C1615   1.399       .  A
C1615      C1616   1.420       .  A
C1616      C1617   1.511       .  S
C1617      H1621   1.111       .  S
C1617      H1622   1.109       .  S
C1617      H1623   1.108       .  S
C1620      H1624   1.104       .  S
C1620      H1625   1.110       .  S
C1620      H1626   1.110       .  S
C1627      H1634   1.083       .  S
C1627      C1628   1.412       .  A
C1627      C1632   1.407       .  A
C1628      C1629   1.419       .  A
C1629      C1630   1.407       .  A
C1629      C1636   1.504       .  S
C1630      H1635   1.084       .  S
C1630      C1631   1.406       .  A
C1631      C1632   1.412       .  A
C1632      C1633   1.507       .  S
C1633      H1637   1.111       .  S
C1633      H1638   1.110       .  S
C1633      H1639   1.110       .  S
C1636      H1640   1.110       .  S
C1636      H1641   1.107       .  S
C1636      H1642   1.111       .  S
C1643      H1650   1.085       .  S
C1643      C1644   1.408       .  A
C1643      C1648   1.411       .  A
C1644      C1645   1.427       .  A
C1645      C1646   1.400       .  A
C1645      C1652   1.513       .  S
C1646      H1651   1.084       .  S
C1646      C1647   1.398       .  A
C1647      C1648   1.416       .  A
C1648      C1649   1.506       .  S
C1649      H1653   1.110       .  S
C1649      H1654   1.109       .  S
C1649      H1655   1.110       .  S
C1652      H1656   1.110       .  S
C1652      H1657   1.110       .  S
C1652      H1658   1.111       .  S
C1659      H1666   1.084       .  S
C1659      C1660   1.401       .  A
C1659      C1664   1.402       .  A
C1660      C1661   1.410       .  A
C1661      C1662   1.401       .  A
C1661      C1668   1.507       .  S
C1662      H1667   1.083       .  S
C1662      C1663   1.407       .  A
C1663      C1664   1.419       .  A
C1664      C1665   1.509       .  S
C1665      H1669   1.111       .  S
C1665      H1670   1.109       .  S
C1665      H1671   1.111       .  S
C1668      H1672   1.110       .  S
C1668      H1673   1.109       .  S
C1668      H1674   1.111       .  S
C1675      H1682   1.084       .  S
C1675      C1676   1.398       .  A
C1675      C1680   1.395       .  A
C1676      C1677   1.411       .  A
C1677      C1678   1.402       .  A
C1677      C1684   1.506       .  S
C1678      H1683   1.083       .  S
C1678      C1679   1.401       .  A
C1679      C1680   1.406       .  A
C1680      C1681   1.507       .  S
C1681      H1685   1.110       .  S
C1681      H1686   1.106       .  S
C1681      H1687   1.109       .  S
C1684      H1688   1.110       .  S
C1684      H1689   1.110       .  S
C1684      H1690   1.111       .  S
C1691      H1698   1.083       .  S
C1691      C1692   1.409       .  A
C1691      C1696   1.409       .  A
C1692      C1693   1.421       .  A
C1693      C1694   1.398       .  A
C1693      C1700   1.509       .  S
C1694      H1699   1.086       .  S
C1694      C1695   1.400       .  A
C1695      C1696   1.416       .  A
C1696      C1697   1.509       .  S
C1697      H1701   1.111       .  S
C1697      H1702   1.109       .  S
C1697      H1703   1.111       .  S
C1700      H1704   1.110       .  S
C1700      H1705   1.109       .  S
C1700      H1706   1.111       .  S
C1707      H1714   1.082       .  S
C1707      C1708   1.408       .  A
C1707      C1712   1.403       .  A
C1708      C1709   1.415       .  A
C1709      C1710   1.397       .  A
C1709      C1716   1.506       .  S
C1710      H1715   1.083       .  S
C1710      C1711   1.407       .  A
C1711      C1712   1.413       .  A
C1712      C1713   1.507       .  S
C1713      H1717   1.110       .  S
C1713      H1718   1.110       .  S
C1713      H1719   1.109       .  S
C1716      H1720   1.108       .  S
C1716      H1721   1.110       .  S
C1716      H1722   1.111       .  S
C1723      H1730   1.084       .  S
C1723      C1724   1.409       .  A
C1723      C1728   1.405       .  A
C1724      C1725   1.412       .  A
C1725      C1726   1.398       .  A
C1725      C1732   1.508       .  S
C1726      H1731   1.085       .  S
C1726      C1727   1.406       .  A
C1727      C1728   1.410       .  A
C1728      C1729   1.505       .  S
C1729      H1733   1.111       .  S
C1729      H1734   1.110       .  S
C1729      H1735   1.108       .  S
C1732      H1736   1.110       .  S
C1732      H1737   1.110       .  S
C1732      H1738   1.111       .  S
C1739      H1746   1.084       .  S
C1739      C1740   1.402       .  A
C1739      C1744   1.404       .  A
C1740      C1741   1.413       .  A
C1741      C1742   1.409       .  A
C1741      C1748   1.507       .  S
C1742      H1747   1.085       .  S
C1742      C1743   1.406       .  A
C1743      C1744   1.414       .  A
C1744      C1745   1.507       .  S
C1745      H1749   1.111       .  S
C1745      H1750   1.109       .  S
C1745      H1751   1.108       .  S
C1748      H1752   1.110       .  S
C1748      H1753   1.110       .  S
C1748      H1754   1.111       .  S
C1755      H1762   1.083       .  S
C1755      C1756   1.402       .  A
C1755      C1760   1.411       .  A
C1756      C1757   1.416       .  A
C1757      C1758   1.400       .  A
C1757      C1764   1.508       .  S
C1758      H1763   1.083       .  S
C1758      C1759   1.404       .  A
C1759      C1760   1.423       .  A
C1760      C1761   1.496       .  S
C1761      H1765   1.111       .  S
C1761      H1766   1.106       .  S
C1761      H1767   1.109       .  S
C1764      H1768   1.109       .  S
C1764      H1769   1.110       .  S
C1764      H1770   1.111       .  S
C1771      H1778   1.082       .  S
C1771      C1772   1.393       .  A
C1771      C1776   1.400       .  A
C1772      C1773   1.424       .  A
C1773      C1774   1.413       .  A
C1773      C1780   1.506       .  S
C1774      H1779   1.083       .  S
C1774      C1775   1.403       .  A
C1775      C1776   1.433       .  A
C1776      C1777   1.510       .  S
C1777      H1781   1.111       .  S
C1777      H1782   1.102       .  S
C1777      H1783   1.109       .  S
C1780      H1784   1.109       .  S
C1780      H1785   1.111       .  S
C1780      H1786   1.111       .  S
C1787      H1794   1.085       .  S
C1787      C1788   1.403       .  A
C1787      C1792   1.411       .  A
C1788      C1789   1.409       .  A
C1789      C1790   1.401       .  A
C1789      C1796   1.508       .  S
C1790      H1795   1.084       .  S
C1790      C1791   1.408       .  A
C1791      C1792   1.418       .  A
C1792      C1793   1.501       .  S
C1793      H1797   1.111       .  S
C1793      H1798   1.103       .  S
C1793      H1799   1.110       .  S
C1796      H1800   1.110       .  S
C1796      H1801   1.109       .  S
C1796      H1802   1.111       .  S
C1803      H1810   1.084       .  S
C1803      C1804   1.400       .  A
C1803      C1808   1.410       .  A
C1804      C1805   1.424       .  A
C1805      C1806   1.404       .  A
C1805      C1812   1.511       .  S
C1806      H1811   1.083       .  S
C1806      C1807   1.404       .  A
C1807      C1808   1.427       .  A
C1808      C1809   1.503       .  S
C1809      H1813   1.111       .  S
C1809      H1814   1.108       .  S
C1809      H1815   1.109       .  S
C1812      H1816   1.109       .  S
C1812      H1817   1.108       .  S
C1812      H1818   1.111       .  S
