geometry optimzed in LAMMPS
_audit_creation_date              2020-11-30 
_audit_creation_method            'lammps2cif' 
_symmetry_space_group_name_H-M    'P1' 
_symmetry_Int_Tables_number       1 
_symmetry_cell_setting            triclinic 
loop_ 
_symmetry_equiv_pos_as_xyz 
  x,y,z 
_cell_length_a                    30.454854548777906 
_cell_length_b                    30.73070137287405 
_cell_length_c                    32.10924780995933 
_cell_angle_alpha                 91.31364242568495 
_cell_angle_beta                  90.02963872531097 
_cell_angle_gamma                 119.08990913801482 
loop_ 
_atom_site_label 
_atom_site_type_symbol 
_atom_site_fract_x 
_atom_site_fract_y 
_atom_site_fract_z 
_atom_site_charge 
C1          C  0.00391429  0.16305581  0.94376128     0.42040
N2          N  0.00823247  0.11069469  0.98480743     0.00930
C3          C  0.09972600  0.94737315  0.94366103    -0.06940
H4          H  0.93488812  0.90676612  0.85775518     0.06430
C5          C  0.84991736  0.87879708  0.00983904    -0.07290
Co6        Co  0.05886881  0.05802845  0.94459529     0.74180
N7          N  0.98232796  0.96494106  0.90162709    -0.26470
Co8        Co  0.98891954  0.92995594  0.95507287     0.74070
C9          C  0.83310933  0.84305983  0.97568220     0.42150
N10         N  0.91130445  0.99450152  0.05247406     0.00550
N11         N  0.91133972  0.89640835  0.96765719     0.00660
N12         N  0.14202327  0.03004322  0.93543800    -0.47320
H13         H  0.03687404  0.13816067  0.88944484     0.06410
N14         N  0.00949085  0.01365300  0.89838166     0.00940
N15         N  0.99561657  0.89654888  0.00873976     0.00680
C16         C  0.99809266  0.84230581  0.04864026     0.42290
N17         N  0.93703015  0.04313491  0.04808061    -0.25930
C18         C  0.15618673  0.13047788  0.98910573    -0.06850
N19         N  0.99591142  0.14646728  0.98314451    -0.47030
N20         N  0.00668520  0.85988313  0.00962035    -0.47260
C21         C  0.17014576  0.16118177  0.02678661     0.42060
N22         N  0.09346625  0.01395940  0.94106832     0.00930
N23         N  0.02150828  0.04303607  0.09251454    -0.25950
N24         N  0.02488589  0.10309794  0.94891866    -0.26440
N25         N  0.99559570  0.99424794  0.09531592     0.00570
H26         H  0.06752246  0.10120887  0.13714023     0.06460
H27         H  0.96566235  0.86700589  0.10358105     0.06490
N28         N  0.06747758  0.96547128  0.94559504    -0.26490
N29         N  0.89804669  0.90842046  0.00324784    -0.26100
N30         N  0.09131121  0.10970946  0.02771691     0.00930
C31         C  0.97607552  0.98901288  0.83746204     0.42330
C32         C  0.90486105  0.06145972  0.04971219    -0.07360
N33         N  0.97928515  0.90410534  0.04482952    -0.26100
H34         H  0.83176800  0.87662468  0.03927899     0.06480
N35         N  0.00738165  0.02914430  0.86088763    -0.47330
H36         H  0.91465841  0.10007692  0.04649705     0.06460
C37         C  0.02889449  0.01862556  0.15607489     0.42160
C38         C  0.02294775  0.13396864  0.92088427    -0.06850
Co39       Co  0.01471011  0.07750585  0.03892191     0.73820
N40         N  0.86245845  0.97789763  0.05688143    -0.47040
C41         C  0.15019082  0.99055178  0.93589667     0.42430
N42         N  0.12796385  0.14695654  0.04918190    -0.47030
Co43       Co  0.94629508  0.95049114  0.04933960     0.73890
C44         C  0.97993269  0.87183485  0.07222463    -0.07360
C45         C  0.95865232  0.94597918  0.86488480    -0.06920
N46         N  0.10694725  0.10082078  0.99187726    -0.26450
N47         N  0.87340600  0.85547886  0.95061864    -0.47210
H48         H  0.08794697  0.90873756  0.94819734     0.06440
C49         C  0.04496313  0.06197586  0.12932343    -0.07340
Cl50       Cl  0.00226522  0.00394783  0.99687586    -0.50340
C51         C  0.85545419  0.01791342  0.05563664     0.42190
H52         H  0.17801004  0.13503020  0.96140720     0.06400
N53         N  0.99831430  0.97840712  0.13250320    -0.47050
C54         C  0.00203188  0.98556837  0.33392898     0.42040
N55         N  0.99590178  0.00556859  0.39771361     0.00930
C56         C  0.12301320  0.97719217  0.56025230    -0.06940
H57         H  0.98971541  0.88589989  0.52201988     0.06430
C58         C  0.85780920  0.90726487  0.56057540    -0.07290
Co59       Co  0.06536062  0.99266740  0.45386067     0.74180
N60         N  0.00280892  0.90041807  0.50404892    -0.26470
Co61       Co  0.00937326  0.94906722  0.55059010     0.74070
C62         C  0.85125443  0.85681202  0.56556238     0.42150
N63         N  0.90367661  0.99589771  0.48700943     0.00550
N64         N  0.93036888  0.91144570  0.55684712     0.00660
N65         N  0.15425776  0.02347616  0.50380178    -0.47320
H66         H  0.05680779  0.95782383  0.35411296     0.06410
N67         N  0.02698750  0.91501839  0.46747811     0.00940
N68         N  0.01513834  0.00028900  0.59710473     0.00680
C69         C  0.00793580  0.02142264  0.66017163     0.42290
N70         N  0.92351390  0.02036146  0.45286095    -0.25930
C71         C  0.15358974  0.10012957  0.43790792    -0.06850
N72         N  0.98227597  0.00721680  0.35900571    -0.47030
N73         N  0.02786292  0.99890621  0.63621101    -0.47260
C74         C  0.15857295  0.15004464  0.43521162     0.42060
N75         N  0.10632305  0.00807644  0.50746723     0.00930
N76         N  0.00742792  0.10317284  0.49144047    -0.25950
N77         N  0.02317684  0.98308794  0.40030162    -0.26440
N78         N  0.98222439  0.08834002  0.52625214     0.00570
H79         H  0.03805024  0.16987933  0.45707331     0.06460
H80         H  0.95454419  0.04988920  0.63861977     0.06490
N81         N  0.08699444  0.98352551  0.54168166    -0.26490
N82         N  0.90678959  0.93715380  0.55393786    -0.26100
N83         N  0.07996494  0.09391565  0.43940412     0.00930
C84         C  0.99909390  0.83639600  0.47217661     0.42330
C85         C  0.88782369  0.02650564  0.43361635    -0.07360
N86         N  0.98807706  0.02295350  0.59359748    -0.26100
H87         H  0.83163061  0.92117195  0.56233856     0.06480
N88         N  0.02754577  0.87658102  0.44825302    -0.47330
H89         H  0.89407803  0.04991713  0.40726533     0.06460
C90         C  0.99787001  0.16360682  0.51809635     0.42160
C91         C  0.02942055  0.96938994  0.36178365    -0.06850
Co92       Co  0.00139627  0.05585469  0.44482070     0.73820
N93         N  0.85584443  0.98151587  0.49051148    -0.47040
C94         C  0.16735565  0.00259480  0.53347715     0.42430
N95         N  0.11078596  0.14261014  0.43604298    -0.47030
Co96       Co  0.94519655  0.01192596  0.54041472     0.73890
C97         C  0.98166141  0.03774211  0.63155528    -0.07360
C98         C  0.98166216  0.85070349  0.50913052    -0.06920
N99         N  0.10420638  0.06860376  0.44179031    -0.26450
N100        N  0.89887473  0.86349986  0.56320303    -0.47210
H101        H  0.11682510  0.95251841  0.58571238     0.06440
C102        C  0.02239237  0.15074807  0.48570275    -0.07340
Cl103      Cl  0.00525129  0.00216791  0.49733365    -0.50340
C104        C  0.84372778  0.00331729  0.46078959     0.42190
H105        H  0.18243851  0.08931632  0.43820924     0.06400
N106        N  0.97419069  0.12373542  0.54285834    -0.47050
C107        C  0.16531098  0.49944936  0.05178204     0.42040
N108        N  0.11406802  0.50745451  0.01042307     0.00930
C109        C  0.95555026  0.60474780  0.05848424    -0.06940
H110        H  0.91957456  0.45774553  0.14409919     0.06430
C111        C  0.87900009  0.35526728  0.98736756    -0.07290
Co112      Co  0.06636323  0.56176590  0.05256448     0.74180
N113        N  0.97462668  0.49041605  0.09669752    -0.26470
Co114      Co  0.93742989  0.49605764  0.04375628     0.74070
C115        C  0.84887524  0.34028728  0.02411381     0.42150
N116        N  0.99243783  0.41390415  0.94025733     0.00550
N117        N  0.90133588  0.41858988  0.02973778     0.00660
N118        N  0.03965348  0.64652585  0.06584777    -0.47320
H119        H  0.14593861  0.53664003  0.10625311     0.06410
N120        N  0.02399891  0.51369964  0.09798998     0.00940
N121        N  0.90287444  0.50397833  0.99144178     0.00680
C122        C  0.84293133  0.50483689  0.95651687     0.42290
N123        N  0.04147749  0.43809431  0.94578347    -0.25930
C124        C  0.14033941  0.65658894  0.01023414    -0.06850
N125        N  0.14842815  0.49285973  0.01190243    -0.47030
N126        N  0.86753854  0.51693215  0.99328836    -0.47260
C127        C  0.17071948  0.66942066  0.97303885     0.42060
N128        N  0.02317954  0.59833048  0.05860699     0.00930
N129        N  0.04234518  0.52269727  0.90456668    -0.25950
N130        N  0.10879456  0.52536676  0.04665411    -0.26440
N131        N  0.99276388  0.49928077  0.90201120     0.00570
H132        H  0.09956474  0.56420402  0.85967668     0.06460
H133        H  0.85647236  0.46393870  0.90066755     0.06490
N134        N  0.97393291  0.57297878  0.05470748    -0.26490
N135        N  0.90922459  0.40362315  0.99301245    -0.26100
N136        N  0.11643849  0.59175341  0.96988202     0.00930
C137        C  0.00415978  0.48759217  0.16057651     0.42330
C138        C  0.05854362  0.40523420  0.94271937    -0.07360
N139        N  0.90471571  0.48454138  0.95491670    -0.26100
H140        H  0.87334312  0.33504496  0.95816568     0.06480
N141        N  0.04245748  0.51230690  0.13465229    -0.47330
H142        H  0.09722443  0.41488932  0.94800525     0.06460
C143        C  0.01576862  0.53246384  0.84245512     0.42160
C144        C  0.13928171  0.52153274  0.07472401    -0.06850
Co145      Co  0.07940232  0.51508203  0.95701030     0.73820
N146        N  0.97489939  0.36565862  0.93253269    -0.47040
C147        C  0.99931874  0.65416880  0.06670469     0.42430
N148        N  0.15489772  0.62709096  0.94965130    -0.47030
Co149      Co  0.94963180  0.45031633  0.94696361     0.73890
C150        C  0.86782399  0.48301534  0.93066928    -0.07360
C151        C  0.95827871  0.47324765  0.13498425    -0.06920
N152        N  0.10872027  0.60819513  0.00595801    -0.26450
N153        N  0.86322727  0.38156145  0.04899032    -0.47210
H154        H  0.91635611  0.59423316  0.05490188     0.06440
C155        C  0.06037998  0.54485694  0.86814608    -0.07340
Cl156      Cl  0.00823085  0.50589664  0.00005514    -0.50340
C157        C  0.01413792  0.35650543  0.93277623     0.42190
H158        H  0.14632391  0.67837420  0.03866171     0.06400
N159        N  0.97556252  0.50339856  0.86540413    -0.47050
C160        C  0.00470491  0.34336022  0.47821705     0.42040
N161        N  0.01130697  0.41202031  0.50092357     0.00930
C162        C  0.91250704  0.55734896  0.43795200    -0.06940
H163        H  0.06472137  0.58844834  0.35560930     0.06430
C164        C  0.16245871  0.63669915  0.51511270    -0.07290
Co165      Co  0.95576067  0.44926244  0.45018322     0.74180
N166        N  0.03151094  0.53573496  0.40447412    -0.26470
Co167      Co  0.02367948  0.57653753  0.45378669     0.74070
C168        C  0.18112151  0.66316437  0.47725150     0.42150
N169        N  0.10053045  0.53139541  0.56579629     0.00550
N170        N  0.10140261  0.61312788  0.47029062     0.00660
N171        N  0.87122796  0.47403174  0.43355772    -0.47320
H172        H  0.95797691  0.34381059  0.42115848     0.06410
N173        N  0.00696412  0.48660862  0.40415154     0.00940
N174        N  0.01299171  0.61341022  0.50242069     0.00680
C175        C  0.99969664  0.66849334  0.53193197     0.42290
N176        N  0.07437922  0.48248744  0.56411346    -0.25930
C177        C  0.85847277  0.38213616  0.48817873    -0.06850
N178        N  0.02390849  0.37794051  0.50849097    -0.47030
N179        N  0.99539659  0.64393040  0.49617443    -0.47260
C180        C  0.84120502  0.35313826  0.52485070     0.42060
N181        N  0.92025320  0.49137787  0.43833101     0.00930
N182        N  0.98729918  0.48572596  0.59929518    -0.25950
N183        N  0.98883355  0.40574997  0.46459958    -0.26440
N184        N  0.01399237  0.53472629  0.60143689     0.00570
H185        H  0.94686458  0.43063187  0.64490389     0.06460
H186        H  0.03587482  0.66325645  0.59384213     0.06490
N187        N  0.94563357  0.54022626  0.44094329    -0.26490
N188        N  0.11367550  0.60837489  0.50865014    -0.26100
N189        N  0.91940142  0.40783926  0.53344988     0.00930
C190        C  0.03149910  0.50448228  0.34121659     0.42330
C191        C  0.10620137  0.46410037  0.56830044    -0.07360
N192        N  0.02913814  0.61525301  0.54087365    -0.26100
H193        H  0.18136269  0.64313811  0.54498248     0.06480
N194        N  0.00599722  0.46664885  0.36707108    -0.47330
H195        H  0.09618523  0.42520220  0.56629895     0.06460
C196        C  0.98687322  0.51413705  0.66369104     0.42160
C197        C  0.98207223  0.36241078  0.44778906    -0.06850
Co198      Co  0.99735411  0.44639634  0.55003091     0.73820
N199        N  0.14960864  0.54809947  0.56995806    -0.47040
C200        C  0.86215410  0.51297662  0.43231553     0.42430
N201        N  0.88126914  0.36943654  0.55162992    -0.47030
Co202      Co  0.06439160  0.57304939  0.55483754     0.73890
C203        C  0.02313241  0.65034105  0.56223422    -0.07360
C204        C  0.04872985  0.55060206  0.36606993    -0.06920
N205        N  0.90638955  0.41369379  0.49571803    -0.26450
N206        N  0.14103198  0.64808214  0.45064440    -0.47210
H207        H  0.92255141  0.59597539  0.44208461     0.06440
C208        C  0.96691832  0.46934872  0.63656955    -0.07340
Cl209      Cl  0.01015570  0.51147856  0.50229194    -0.50340
C210        C  0.15609046  0.50771242  0.57241496     0.42190
H211        H  0.84105260  0.37398697  0.45764621     0.06400
N212        N  0.01548888  0.55292990  0.63941418    -0.47050
C213        C  0.35068929  0.00256438  0.94180910     0.42040
N214        N  0.43018192  0.02645667  0.95005236     0.00930
C215        C  0.52789984  0.86907906  0.99327575    -0.06940
H216        H  0.39292481  0.83732961  0.08382358     0.06430
C217        C  0.50771169  0.03848041  0.13929336    -0.07290
Co218      Co  0.44897173  0.93944785  0.95335776     0.74180
N219        N  0.42375357  0.89408741  0.03723762    -0.26470
Co220      Co  0.50126738  0.93600613  0.04876898     0.74070
C221        C  0.48097046  0.99390429  0.16331120     0.42150
N222        N  0.51737721  0.10180903  0.04774291     0.00550
N223        N  0.49199854  0.97315473  0.10133404     0.00660
N224        N  0.49186473  0.86981135  0.93197316    -0.47320
H225        H  0.33313026  0.92047392  0.93432066     0.06410
N226        N  0.40489718  0.89909404  0.00174326     0.00940
N227        N  0.57949220  0.97858486  0.05728141     0.00680
C228        C  0.65868127  0.00400249  0.06344468     0.42290
N229        N  0.49994816  0.10306307  0.01045506    -0.25930
C230        C  0.49608664  0.96288788  0.86806548    -0.06850
N231        N  0.39707750  0.04295529  0.94755767    -0.47030
N232        N  0.61313146  0.96280445  0.05830482    -0.47260
C233        C  0.52683524  0.00667548  0.84382632     0.42060
N234        N  0.48993841  0.90154279  0.95964701     0.00930
N235        N  0.58699823  0.10874819  0.97085573    -0.25950
N236        N  0.40841609  0.97754247  0.94726286    -0.26440
N237        N  0.60366450  0.10467295  0.00770290     0.00570
H238        H  0.62339029  0.16143830  0.92187793     0.06460
H239        H  0.67768406  0.08592290  0.06724995     0.06490
N240        N  0.50996819  0.90095887  0.99596553    -0.26490
N241        N  0.51324735  0.02217430  0.10191589    -0.26100
N242        N  0.51782507  0.02931443  0.90625642     0.00930
C243        C  0.34372838  0.83545476  0.02832654     0.42330
C244        C  0.48194086  0.13465680  0.01153212    -0.07360
N245        N  0.60050991  0.02752612  0.06042664    -0.26100
H246        H  0.52506910  0.07710684  0.14962746     0.06480
N247        N  0.35779403  0.86514019  0.99551594    -0.47330
H248        H  0.46912505  0.14586849  0.98448705     0.06460
C249        C  0.66866673  0.16379185  0.98075717     0.42160
C250        C  0.35923925  0.95942534  0.94018479    -0.06850
Co251      Co  0.50911786  0.06777062  0.95844246     0.73820
N252        N  0.51310957  0.13282491  0.07488640    -0.47040
C253        C  0.51616844  0.84858348  0.95081173     0.42430
N254        N  0.53803981  0.04678454  0.86947063    -0.47030
Co255      Co  0.55858386  0.06428554  0.05491912     0.73890
C256        C  0.65038518  0.04676611  0.06483064    -0.07360
C257        C  0.38764545  0.85400125  0.05631175    -0.06920
N258        N  0.49332888  0.98029752  0.90566892    -0.26450
N259        N  0.47312131  0.95456281  0.13815849    -0.47210
H260        H  0.54264704  0.85785928  0.01907283     0.06440
C261        C  0.62579331  0.14612620  0.95124328    -0.07340
Cl262      Cl  0.50443842  0.00186260  0.00386002    -0.50340
C263        C  0.48970051  0.15399466  0.05434980     0.42190
H264        H  0.47462289  0.92418590  0.85833559     0.06400
N265        N  0.65128236  0.13636882  0.01454987    -0.47050
C266        C  0.51451762  0.15852891  0.57846531     0.42040
N267        N  0.49288376  0.07998550  0.56890387     0.00930
C268        C  0.63633902  0.98157833  0.48914387    -0.06940
H269        H  0.66235123  0.12866536  0.41231753     0.06430
C270        C  0.45685111  0.99834285  0.36984267    -0.07290
Co271      Co  0.57890990  0.06257225  0.55022031     0.74180
N272        N  0.61304876  0.09061510  0.46369839    -0.26470
Co273      Co  0.56882967  0.01189962  0.44978431     0.74070
C274        C  0.49925343  0.02376309  0.34212222     0.42150
N275        N  0.40454210  0.99182877  0.47364075     0.00550
N276        N  0.52668705  0.02168149  0.40340975     0.00660
N277        N  0.66173124  0.03300058  0.54579961    -0.47320
H278        H  0.59771258  0.17984687  0.56639799     0.06410
N279        N  0.61188428  0.10703423  0.50182534     0.00940
N280        N  0.52746510  0.93415413  0.43842178     0.00680
C281        C  0.50492903  0.85481146  0.43343411     0.42290
N282        N  0.41467499  0.01568542  0.50996176    -0.25930
C283        C  0.56357411  0.01449133  0.63616040    -0.06850
N284        N  0.47527651  0.11134912  0.57632251    -0.47030
N285        N  0.54461183  0.90190997  0.43354198    -0.47260
C286        C  0.52094568  0.98815745  0.66349822     0.42060
N287        N  0.61693416  0.02417583  0.53247813     0.00930
N288        N  0.40696040  0.92460427  0.54252016    -0.25950
N289        N  0.54185476  0.10302727  0.56526199    -0.26440
N290        N  0.40890878  0.90852132  0.50448245     0.00570
H291        H  0.35474581  0.88690423  0.59235790     0.06460
H292        H  0.42249240  0.83522684  0.44523086     0.06490
N293        N  0.60520911  0.99898287  0.49680858    -0.26490
N294        N  0.47735892  0.99815470  0.40660235    -0.26100
N295        N  0.49389013  0.99290344  0.60288022     0.00930
C296        C  0.66903147  0.17258513  0.47403430     0.42330
C297        C  0.38336744  0.03315578  0.51691989    -0.07360
N298        N  0.47855528  0.91170481  0.44222967    -0.26100
H299        H  0.41731451  0.97666766  0.36194477     0.06480
N300        N  0.64384381  0.15421257  0.50884218    -0.47330
H301        H  0.38029616  0.04900714  0.54636606     0.06460
C302        C  0.34980895  0.84355617  0.53077206     0.42160
C303        C  0.55899212  0.15231859  0.57025852    -0.06850
Co304      Co  0.45144538  0.00281411  0.55685747     0.73820
N305        N  0.36104496  0.98461794  0.45848834    -0.47040
C306        C  0.67658357  0.00848211  0.51850910     0.42430
N307        N  0.47902008  0.97687292  0.64100330    -0.47030
Co308      Co  0.44209169  0.95281320  0.45637833     0.73890
C309        C  0.46100666  0.86220880  0.43984900    -0.07360
C310        C  0.64931458  0.13006416  0.44337442    -0.06920
N311        N  0.54329611  0.01627415  0.59970779    -0.26450
N312        N  0.54137211  0.03667545  0.36502293    -0.47210
H313        H  0.63820540  0.96527753  0.45961283     0.06440
C314        C  0.36917200  0.88545350  0.56190466    -0.07340
Cl315      Cl  0.51033959  0.00767367  0.50332224    -0.50340
C316        C  0.34502636  0.00840161  0.48542024     0.42190
H317        H  0.60312117  0.03528294  0.64421851     0.06400
N318        N  0.37633305  0.86177174  0.49669895    -0.47050
C319        C  0.36551658  0.52353544  0.07371257     0.42040
N320        N  0.42068979  0.49870549  0.06787749     0.00930
C321        C  0.65983197  0.62598739  0.99280727    -0.06940
H322        H  0.52728664  0.63085510  0.89952156     0.06430
C323        C  0.45985153  0.44420902  0.87435537    -0.07290
Co324      Co  0.52345382  0.58009245  0.05099917     0.74180
N325        N  0.52498276  0.60178946  0.96043879    -0.26470
Co326      Co  0.55817254  0.55721717  0.95302933     0.74070
C327        C  0.47648377  0.48678744  0.84692224     0.42150
N328        N  0.41284018  0.39901772  0.98182380     0.00550
N329        N  0.50499401  0.51313014  0.90875459     0.00660
N330        N  0.63920043  0.64519668  0.05527622    -0.47320
H331        H  0.42881802  0.60599132  0.06940795     0.06410
N332        N  0.51245101  0.61148421  0.99739380     0.00940
N333        N  0.59147153  0.51251748  0.94593162     0.00680
C334        C  0.64522612  0.48726567  0.93686078     0.42290
N335        N  0.40196629  0.41177841  0.01818075    -0.25930
C336        C  0.55265841  0.56644109  0.14164366    -0.06850
N337        N  0.37224406  0.48321309  0.07266211    -0.47030
N338        N  0.63944804  0.52803721  0.93823881    -0.47260
C339        C  0.53546115  0.52399651  0.16939507     0.42060
N340        N  0.59914234  0.61001482  0.03516188     0.00930
N341        N  0.48674752  0.40721439  0.05465494    -0.25950
N342        N  0.44716708  0.54727279  0.06451776    -0.26440
N343        N  0.50140944  0.40078084  0.01745545     0.00570
H344        H  0.47758622  0.36874628  0.11221474     0.06460
H345        H  0.58590516  0.40590592  0.94878635     0.06490
N346        N  0.61056280  0.59970914  0.99798761    -0.26490
N347        N  0.47956414  0.46427932  0.91202107    -0.26100
N348        N  0.50629242  0.49750154  0.10757768     0.00930
C349        C  0.49843712  0.65720037  0.95543823     0.42330
C350        C  0.35307779  0.38559140  0.02492032    -0.07360
N351        N  0.56527817  0.46401740  0.95061682    -0.26100
H352        H  0.44213218  0.40496134  0.86603920     0.06480
N353        N  0.49744985  0.64529809  0.99588613    -0.47330
H354        H  0.33520312  0.38465415  0.05423213     0.06460
C355        C  0.50975523  0.34806817  0.05467236     0.42160
C356        C  0.41629014  0.56661710  0.06928378    -0.06850
Co357      Co  0.45397046  0.45349874  0.06253751     0.73820
N358        N  0.37273125  0.36033301  0.96468413    -0.47040
C359        C  0.67916969  0.65674057  0.03033722     0.42430
N360        N  0.50675482  0.48290307  0.14588096    -0.47030
Co361      Co  0.48908618  0.43098740  0.96496655     0.73890
C362        C  0.59614096  0.44464252  0.94563751    -0.07360
C363        C  0.51729596  0.62869277  0.93201595    -0.06920
N364        N  0.53213429  0.54632566  0.10417377    -0.26450
N365        N  0.50424308  0.52787843  0.87062155    -0.47210
H366        H  0.67896217  0.62803929  0.96393847     0.06440
C367        C  0.49067546  0.37529843  0.08047910    -0.07340
Cl368      Cl  0.50626813  0.50543274  0.00793960    -0.50340
C369        C  0.33353770  0.35085146  0.99021058     0.42190
H370        H  0.57190669  0.60583415  0.14956350     0.06400
N371        N  0.51536640  0.36633259  0.01627181    -0.47050
C372        C  0.34793218  0.51081313  0.55640271     0.42040
N373        N  0.40281594  0.48595053  0.55256040     0.00930
C374        C  0.66024879  0.63485806  0.52147659    -0.06940
H375        H  0.55691014  0.65372009  0.41189153     0.06430
C376        C  0.48610819  0.46143167  0.37189271    -0.07290
Co377      Co  0.50894822  0.57164496  0.55396367     0.74180
N378        N  0.53505822  0.61023849  0.46764962    -0.26470
Co379      Co  0.56988813  0.56515240  0.46538110     0.74070
C380        C  0.50741816  0.50705066  0.34792647     0.42150
N381        N  0.41894435  0.39828416  0.46399794     0.00550
N382        N  0.52870710  0.52589411  0.41236526     0.00660
N383        N  0.62178989  0.64255770  0.57889978    -0.47320
H384        H  0.40921218  0.59329604  0.55800663     0.06410
N385        N  0.51170661  0.61263618  0.50157962     0.00940
N386        N  0.60477089  0.52082049  0.46455214     0.00680
C387        C  0.66154942  0.49795722  0.45606270     0.42290
N388        N  0.39663687  0.40224663  0.49798888    -0.25930
C389        C  0.52050365  0.54396741  0.64506656    -0.06850
N390        N  0.35375217  0.46993402  0.55444608    -0.47030
N391        N  0.65378099  0.53746275  0.46163039    -0.47260
C392        C  0.50011854  0.49783680  0.66828373     0.42060
N393        N  0.58883898  0.60768743  0.55264737     0.00930
N394        N  0.47269843  0.39643562  0.54921612    -0.25950
N395        N  0.42980527  0.53515944  0.55361799    -0.26440
N396        N  0.49648470  0.39403099  0.51556367     0.00570
H397        H  0.45271347  0.35529250  0.60618154     0.06460
H398        H  0.59835869  0.41535073  0.44850254     0.06490
N399        N  0.61070368  0.60376507  0.51837638    -0.26490
N400        N  0.50187019  0.47671141  0.41123996    -0.26100
N401        N  0.47879456  0.48006098  0.60392148     0.00930
C402        C  0.51252491  0.66950616  0.46267121     0.42330
C403        C  0.34702843  0.37125918  0.49416633    -0.07360
N404        N  0.57829090  0.47180193  0.46180372    -0.26100
H405        H  0.46643128  0.42305343  0.36082541     0.06480
N406        N  0.49817343  0.64769805  0.50003388    -0.47330
H407        H  0.32003345  0.36338526  0.51867782     0.06460
C408        C  0.49716337  0.33877433  0.55593681     0.42160
C409        C  0.39825653  0.55414211  0.55596247    -0.06850
Co410      Co  0.43747944  0.44111539  0.55125680     0.73820
N411        N  0.38635417  0.36372511  0.43733673    -0.47040
C412        C  0.66813250  0.66068680  0.56166441     0.42430
N413        N  0.47454030  0.46003448  0.64072680    -0.47030
Co414      Co  0.49884249  0.43465415  0.46260981     0.73890
C415        C  0.61042604  0.45406413  0.45540638    -0.07360
C416        C  0.53733184  0.64472429  0.44119586    -0.06920
N417        N  0.50520228  0.52925941  0.60549388    -0.26450
N418        N  0.53348197  0.54526448  0.37514229    -0.47210
H419        H  0.68675084  0.64265541  0.49656627     0.06440
C420        C  0.47149333  0.36319050  0.57651858    -0.07340
Cl421      Cl  0.50376113  0.50313550  0.50828617    -0.50340
C422        C  0.33962443  0.34586454  0.45365124     0.42190
H423        H  0.53963519  0.58213160  0.65669285     0.06400
N424        N  0.51129373  0.35994485  0.51819771    -0.47050
C425        C  0.53107408  0.50946846  0.78373022    -0.02260
C426        C  0.48248622  0.48623684  0.80124490     0.07420
C427        C  0.43984145  0.46490691  0.77495333    -0.02370
C428        C  0.44541435  0.46821081  0.73140812    -0.02380
C429        C  0.49394816  0.49296229  0.71393085     0.07550
C430        C  0.53665243  0.51319119  0.74023117    -0.02570
Br431      Br  0.60301117  0.54464136  0.71651008    -0.01120
Br432      Br  0.59054391  0.53432686  0.81875304    -0.01190
Br433      Br  0.38596976  0.44135669  0.69635397    -0.01150
Br434      Br  0.37365149  0.43322365  0.79885963    -0.01140
C435        C  0.53767224  0.48716217  0.28093794    -0.02260
C436        C  0.51501330  0.51169636  0.30229959     0.07420
C437        C  0.50181537  0.54290539  0.28026701    -0.02370
C438        C  0.50958848  0.54835622  0.23694470    -0.02380
C439        C  0.53193098  0.52348371  0.21549328     0.07550
C440        C  0.54545242  0.49259746  0.23769197    -0.02570
Br441      Br  0.57496788  0.45753803  0.20862515    -0.01120
Br442      Br  0.56131384  0.44846404  0.31076423    -0.01190
Br443      Br  0.48503111  0.58624438  0.20712080    -0.01150
Br444      Br  0.47111178  0.57677393  0.30940304    -0.01140
C445        C  0.55463649  0.80687473  0.44175363    -0.02260
C446        C  0.50794799  0.80650142  0.43552414     0.07420
C447        C  0.46390971  0.75870199  0.43242416    -0.02370
C448        C  0.46555155  0.71474949  0.44244744    -0.02380
C449        C  0.51149165  0.71614723  0.45116867     0.07550
C450        C  0.55612242  0.76211911  0.44890455    -0.02570
Br451      Br  0.61993082  0.76394208  0.45652886    -0.01120
Br452      Br  0.61834584  0.86720844  0.43891657    -0.01190
Br453      Br  0.40451426  0.65132525  0.44265445    -0.01150
Br454      Br  0.40202001  0.74985735  0.40812458    -0.01140
C455        C  0.46199954  0.20393670  0.58086448    -0.02260
C456        C  0.50985793  0.20592693  0.58073357     0.07420
C457        C  0.55286503  0.25434135  0.58271726    -0.02370
C458        C  0.54849692  0.29735285  0.57473314    -0.02380
C459        C  0.50110264  0.29400854  0.56911408     0.07550
C460        C  0.45809905  0.24784234  0.57646052    -0.02570
Br461      Br  0.39372715  0.24472365  0.58305287    -0.01120
Br462      Br  0.40047231  0.14261668  0.58996669    -0.01190
Br463      Br  0.60723807  0.36243658  0.57634961    -0.01150
Br464      Br  0.61650370  0.26476502  0.60417549    -0.01140
C465        C  0.53594199  0.04512393  0.77252346    -0.02260
C466        C  0.53250278  0.00599717  0.79741908     0.07420
C467        C  0.52927590  0.96286893  0.77700420    -0.02370
C468        C  0.52208187  0.95600374  0.73355947    -0.02380
C469        C  0.52394467  0.99413922  0.70934052     0.07550
C470        C  0.53245258  0.03930500  0.72865443    -0.02570
Br471      Br  0.53829006  0.09302032  0.69472216    -0.01120
Br472      Br  0.54554102  0.10720564  0.79698026    -0.01190
Br473      Br  0.50896464  0.89382422  0.70675783    -0.01150
Br474      Br  0.54077751  0.91507512  0.80654964    -0.01140
C475        C  0.51693428  0.98967437  0.27578928    -0.02260
C476        C  0.49520988  0.01579942  0.29623885     0.07420
C477        C  0.46539042  0.03043141  0.27316169    -0.02370
C478        C  0.45799941  0.01993208  0.23004024    -0.02380
C479        C  0.48083921  0.99526335  0.20938839     0.07550
C480        C  0.51047727  0.98025770  0.23238811    -0.02570
Br481      Br  0.54527322  0.94982914  0.20434774    -0.01120
Br482      Br  0.55390963  0.96453711  0.30682712    -0.01190
Br483      Br  0.41638024  0.03952725  0.19898777    -0.01150
Br484      Br  0.43615436  0.06684001  0.30033074    -0.01140
C485        C  0.46349575  0.71075468  0.93001040    -0.02260
C486        C  0.50484904  0.70582885  0.94321261     0.07420
C487        C  0.55244781  0.74831592  0.94737350    -0.02370
C488        C  0.55700816  0.79589750  0.94569906    -0.02380
C489        C  0.51431486  0.80115097  0.93801887     0.07550
C490        C  0.46846336  0.75860145  0.92625679    -0.02570
Br491      Br  0.41221879  0.76486471  0.90600588    -0.01120
Br492      Br  0.40030184  0.65187464  0.91775432    -0.01190
Br493      Br  0.62176804  0.85406296  0.95453466    -0.01150
Br494      Br  0.61122982  0.74120711  0.95571123    -0.01140
C495        C  0.52859200  0.28687716  0.09043505    -0.02260
C496        C  0.50029997  0.29669340  0.06099272     0.07420
C497        C  0.46388516  0.25691828  0.03609545    -0.02370
C498        C  0.45243236  0.20819902  0.04420420    -0.02380
C499        C  0.48678125  0.19940371  0.06674659     0.07550
C500        C  0.52404191  0.23877751  0.09163026    -0.02570
Br501      Br  0.57031580  0.22867466  0.12564843    -0.01120
Br502      Br  0.57795798  0.34074884  0.12488519    -0.01190
Br503      Br  0.38919823  0.15356496  0.02430690    -0.01150
Br504      Br  0.43582401  0.26687982  0.98546237    -0.01140
C505        C  0.70981801  0.26063313  0.49647152    -0.02260
C506        C  0.71541167  0.22131686  0.47824494     0.07420
C507        C  0.76286884  0.22385304  0.48037048    -0.02370
C508        C  0.80360150  0.26461030  0.50089887    -0.02380
C509        C  0.79733129  0.30292899  0.52016603     0.07550
C510        C  0.74991273  0.30009951  0.51843479    -0.02570
Br511      Br  0.74061848  0.35132147  0.54621978    -0.01120
Br512      Br  0.64629600  0.25994670  0.49136757    -0.01190
Br513      Br  0.86869026  0.26888291  0.50142049    -0.01150
Br514      Br  0.77274168  0.17179601  0.45583061    -0.01140
C515        C  0.30652946  0.75326280  0.52038597    -0.02260
C516        C  0.30231555  0.79675793  0.52489381     0.07420
C517        C  0.26151609  0.79827349  0.50511285    -0.02370
C518        C  0.22427272  0.75609815  0.48308058    -0.02380
C519        C  0.22738797  0.71186744  0.48073927     0.07550
C520        C  0.27001714  0.71164335  0.49777710    -0.02570
Br521      Br  0.27792253  0.65332737  0.49018832    -0.01120
Br522      Br  0.36470520  0.75207080  0.54306939    -0.01190
Br523      Br  0.17004996  0.75954564  0.45504452    -0.01150
Br524      Br  0.25858939  0.85939326  0.50515920    -0.01140
C525        C  0.76689755  0.46260172  0.44408549    -0.02260
C526        C  0.80990160  0.50840429  0.43417612     0.07420
C527        C  0.80188500  0.54947479  0.42700764    -0.02370
C528        C  0.75431578  0.54637176  0.43428142    -0.02380
C529        C  0.71271154  0.50166474  0.44853991     0.07550
C530        C  0.72057894  0.46031458  0.45419525    -0.02570
Br531      Br  0.67074599  0.40049251  0.47993078    -0.01120
Br532      Br  0.76675449  0.39981156  0.43898289    -0.01190
Br533      Br  0.74800713  0.60486124  0.42334235    -0.01150
Br534      Br  0.85293694  0.60819913  0.40058477    -0.01140
C535        C  0.22679124  0.51219518  0.52869915    -0.02260
C536        C  0.20526920  0.50869045  0.56827410     0.07420
C537        C  0.23045413  0.50526298  0.60384242    -0.02370
C538        C  0.27708784  0.50604235  0.60000930    -0.02380
C539        C  0.29892130  0.51017670  0.56052610     0.07550
C540        C  0.27347849  0.51306606  0.52488534    -0.02570
Br541      Br  0.30235823  0.51716545  0.47072776    -0.01120
Br542      Br  0.19150906  0.51439030  0.47957293    -0.01190
Br543      Br  0.31123997  0.50152931  0.64889406    -0.01150
Br544      Br  0.20064032  0.49924618  0.65783530    -0.01140
C545        C  0.99233832  0.55710317  0.73217125    -0.02260
C546        C  0.99383316  0.51766751  0.70974059     0.07420
C547        C  0.00646001  0.48526374  0.73125709    -0.02370
C548        C  0.01394809  0.49052154  0.77475403    -0.02380
C549        C  0.01250629  0.52997833  0.79667069     0.07550
C550        C  0.00224701  0.56347920  0.77536298    -0.02570
Br551      Br  0.00152844  0.61797716  0.80581077    -0.01120
Br552      Br  0.97565445  0.60222952  0.70415112    -0.01190
Br553      Br  0.02483841  0.44259303  0.80477125    -0.01150
Br554      Br  0.01876130  0.43638474  0.70240566    -0.01140
C555        C  0.97144689  0.45989377  0.23354895    -0.02260
C556        C  0.01167157  0.48984509  0.20709110     0.07420
C557        C  0.05951380  0.52319663  0.22598639    -0.02370
C558        C  0.06578048  0.52628531  0.26964288    -0.02380
C559        C  0.02456374  0.49925201  0.29534308     0.07550
C560        C  0.97695207  0.46721701  0.27711790    -0.02570
Br561      Br  0.91738012  0.43608649  0.31100439    -0.01120
Br562      Br  0.90987831  0.40445006  0.21213814    -0.01190
Br563      Br  0.13180033  0.56700335  0.29466000    -0.01150
Br564      Br  0.11877059  0.56648617  0.19464361    -0.01140
C565        C  0.71522127  0.25656255  0.98979604    -0.02260
C566        C  0.71583993  0.21105255  0.98536213     0.07420
C567        C  0.75824382  0.20805424  0.99921811    -0.02370
C568        C  0.79894590  0.24953709  0.01832559    -0.02380
C569        C  0.79939255  0.29546018  0.02125831     0.07550
C570        C  0.75752702  0.29899803  0.00667696    -0.02570
Br571      Br  0.75896755  0.36239462  0.00789420    -0.01120
Br572      Br  0.65595584  0.26071209  0.97501307    -0.01190
Br573      Br  0.85503331  0.24399444  0.04032201    -0.01150
Br574      Br  0.76022510  0.14632624  0.99237418    -0.01140
C575        C  0.25468897  0.78754012  0.01857331    -0.02260
C576        C  0.29955250  0.78614244  0.02314973     0.07420
C577        C  0.30470309  0.74770219  0.00263103    -0.02370
C578        C  0.26454044  0.71124758  0.97796297    -0.02380
C579        C  0.22029048  0.71457057  0.97308798     0.07550
C580        C  0.21951780  0.75705505  0.98839352    -0.02570
Br581      Br  0.17304161  0.77455900  0.96366977    -0.01120
Br582      Br  0.24101211  0.82849454  0.05658085    -0.01190
Br583      Br  0.27243668  0.66188371  0.94585850    -0.01150
Br584      Br  0.36601198  0.74484674  0.00944580    -0.01140
C585        C  0.71229255  0.48755913  0.98118940    -0.02260
C586        C  0.69470830  0.48999734  0.94138038     0.07420
C587        C  0.72579027  0.49886889  0.90666963    -0.02370
C588        C  0.77440080  0.50454480  0.91149720    -0.02380
C589        C  0.79187965  0.50007942  0.95123982     0.07550
C590        C  0.76016529  0.49188170  0.98633978    -0.02570
Br591      Br  0.77938164  0.48548942  0.04251530    -0.01120
Br592      Br  0.67118655  0.48068902  0.02929968    -0.01190
Br593      Br  0.81777812  0.52278926  0.86379937    -0.01150
Br594      Br  0.70143286  0.50370275  0.85242411    -0.01140
C595        C  0.30673504  0.55831785  0.05543277    -0.02260
C596        C  0.31440599  0.52000946  0.07226214     0.07420
C597        C  0.27132329  0.47611775  0.08600809    -0.02370
C598        C  0.22245887  0.46908717  0.07899188    -0.02380
C599        C  0.21596527  0.50740078  0.06247073     0.07550
C600        C  0.25822862  0.55315252  0.05401835    -0.02570
Br601      Br  0.24934597  0.60959875  0.04208202    -0.01120
Br602      Br  0.35885389  0.61576022  0.02872252    -0.01190
Br603      Br  0.16380535  0.40724772  0.09251247    -0.01150
Br604      Br  0.27713589  0.42516517  0.11587487    -0.01140
C605        C  0.75389028  0.80111614  0.56206743    -0.02260
C606        C  0.80297908  0.80652416  0.56859539     0.07420
C607        C  0.80509928  0.76209296  0.57727386    -0.02370
C608        C  0.76087834  0.71483197  0.57633559    -0.02380
C609        C  0.71306923  0.71064114  0.57087258     0.07550
C610        C  0.70989520  0.75439045  0.56625318    -0.02570
Br611      Br  0.64428824  0.74986465  0.56375528    -0.01120
Br612      Br  0.74264772  0.85344054  0.54142109    -0.01190
Br613      Br  0.76529982  0.65467083  0.58267868    -0.01150
Br614      Br  0.86766658  0.76326125  0.59046563    -0.01140
C615        C  0.20926400  0.24245020  0.41777614    -0.02260
C616        C  0.20601096  0.20026224  0.43800560     0.07420
C617        C  0.24873542  0.20696044  0.46130745    -0.02370
C618        C  0.29377063  0.25313019  0.46182087    -0.02380
C619        C  0.29579239  0.29535935  0.44387489     0.07550
C620        C  0.25317930  0.28982130  0.42197193    -0.02570
Br621      Br  0.25543105  0.34769878  0.39776260    -0.01120
Br622      Br  0.15431643  0.23621118  0.38351596    -0.01190
Br623      Br  0.35371002  0.25893387  0.48715139    -0.01150
Br624      Br  0.24548957  0.15666982  0.49816468    -0.01140
C625        C  0.74021715  0.03524700  0.46108208    -0.02260
C626        C  0.72854507  0.02848344  0.50436997     0.07420
C627        C  0.76488439  0.03238462  0.53281242    -0.02370
C628        C  0.80878997  0.03436927  0.51784202    -0.02380
C629        C  0.81288813  0.02582517  0.47436864     0.07550
C630        C  0.78084751  0.03057151  0.44598149    -0.02570
Br631      Br  0.78930386  0.02563792  0.38678925    -0.01120
Br632      Br  0.70165691  0.05008484  0.42135330    -0.01190
Br633      Br  0.86082408  0.04689167  0.55845062    -0.01150
Br634      Br  0.75205166  0.02907847  0.59200879    -0.01140
C635        C  0.21180678  0.98045159  0.47816252    -0.02260
C636        C  0.20316779  0.98563966  0.52140323     0.07420
C637        C  0.23417913  0.98196157  0.55154707    -0.02370
C638        C  0.27673037  0.97944881  0.53879271    -0.02380
C639        C  0.29208323  0.98866889  0.49647586     0.07550
C640        C  0.25780795  0.98500979  0.46592709    -0.02570
Br641      Br  0.27536968  0.99022596  0.40765004    -0.01120
Br642      Br  0.16276139  0.96825090  0.43433363    -0.01190
Br643      Br  0.31096384  0.96086867  0.57976849    -0.01150
Br644      Br  0.22202731  0.98578394  0.61018542    -0.01140
C645        C  0.04761533  0.79636887  0.49621559    -0.02260
C646        C  0.00324512  0.79133146  0.47754130     0.07420
C647        C  0.95720524  0.74781930  0.48432939    -0.02370
C648        C  0.95518145  0.71128867  0.51076673    -0.02380
C649        C  0.99954443  0.71557569  0.52817453     0.07550
C650        C  0.04566571  0.75883935  0.52176312    -0.02570
Br651      Br  0.10622098  0.76638042  0.54774848    -0.01120
Br652      Br  0.11077108  0.85586737  0.48929149    -0.01190
Br653      Br  0.89154577  0.65323021  0.52197712    -0.01150
Br654      Br  0.89573835  0.74078764  0.46045235    -0.01140
C655        C  0.96935984  0.20745006  0.46968323    -0.02260
C656        C  0.98116630  0.20024758  0.51075442     0.07420
C657        C  0.98670980  0.23435734  0.54235923    -0.02370
C658        C  0.98666886  0.27833441  0.53207258    -0.02380
C659        C  0.98884608  0.29133573  0.48915314     0.07550
C660        C  0.97785380  0.25445322  0.45807829    -0.02570
Br661      Br  0.97874624  0.26791231  0.39953927    -0.01120
Br662      Br  0.93998749  0.15316480  0.42932020    -0.01190
Br663      Br  0.98069552  0.31711268  0.57815017    -0.01150
Br664      Br  0.99773484  0.22222018  0.59919992    -0.01140
C665        C  0.99106864  0.04530234  0.73147072    -0.02260
C666        C  0.99608167  0.01061481  0.70508806     0.07420
C667        C  0.98805999  0.96491989  0.72180895    -0.02370
C668        C  0.98125474  0.95700820  0.76496440    -0.02380
C669        C  0.97575919  0.99163345  0.79120524     0.07550
C670        C  0.97802671  0.03441773  0.77348848    -0.02570
Br671      Br  0.96276632  0.07865129  0.80667476    -0.01120
Br672      Br  0.00582636  0.10992698  0.71169210    -0.01190
Br673      Br  0.98481377  0.90081600  0.78708832    -0.01150
Br674      Br  0.98324355  0.91069382  0.68649165    -0.01140
C675        C  0.00996593  0.03776405  0.27088716    -0.02900
C676        C  0.01087335  0.99593114  0.28841976     0.07420
C677        C  0.02127272  0.96463756  0.26195046    -0.02370
C678        C  0.03314270  0.97634863  0.21986016    -0.02380
C679        C  0.02891561  0.01575890  0.20211213     0.07550
C680        C  0.01598896  0.04563790  0.22769250    -0.02570
Br681      Br  0.00074305  0.09415751  0.20385245    -0.01120
Br682      Br  0.00188881  0.08670915  0.30435078    -0.01190
Br683      Br  0.05503785  0.93760963  0.18611853    -0.01150
Br684      Br  0.01419949  0.90232612  0.28091010    -0.01140
C685        C  0.80250067  0.75276391  0.99004860    -0.02260
C686        C  0.79236652  0.79261988  0.98471175     0.07420
C687        C  0.74812822  0.78956795  0.00176751    -0.02370
C688        C  0.71548364  0.74835342  0.02496078    -0.02380
C689        C  0.72292718  0.70664497  0.02641318     0.07550
C690        C  0.76732101  0.70964695  0.01018191    -0.02570
Br691      Br  0.77984221  0.65417509  0.01655091    -0.01120
Br692      Br  0.86484638  0.75687437  0.97198606    -0.01190
Br693      Br  0.66257286  0.75099675  0.05626898    -0.01150
Br694      Br  0.73297552  0.84332268  0.99452530    -0.01140
C695        C  0.24229319  0.29239794  0.99219026    -0.02260
C696        C  0.29172035  0.30121096  0.99821004     0.07420
C697        C  0.30017203  0.26814632  0.02260956    -0.02370
C698        C  0.25996239  0.22197934  0.03281504    -0.02380
C699        C  0.21081908  0.21238429  0.02527327     0.07550
C700        C  0.20189522  0.24897239  0.00756286    -0.02570
Br701      Br  0.13486976  0.24034637  0.00579873    -0.01120
Br702      Br  0.23042794  0.34144912  0.96549983    -0.01190
Br703      Br  0.27183821  0.17208916  0.05792899    -0.01150
Br704      Br  0.36376804  0.28907838  0.04986744    -0.01140
C705        C  0.72719067  0.99964614  0.02304551    -0.02260
C706        C  0.70827860  0.00583264  0.06151814     0.07420
C707        C  0.73863384  0.01784944  0.09771214    -0.02370
C708        C  0.78709580  0.02262362  0.09563324    -0.02380
C709        C  0.80553377  0.01532397  0.05736904     0.07550
C710        C  0.77534045  0.00359109  0.02109396    -0.02570
Br711      Br  0.80039092  0.99351018  0.96865945    -0.01120
Br712      Br  0.68843098  0.98908790  0.97267100    -0.01190
Br713      Br  0.82831840  0.03881065  0.14526588    -0.01150
Br714      Br  0.71355134  0.02761766  0.15023908    -0.01140
C715        C  0.24713170  0.04070976  0.92760285    -0.02260
C716        C  0.20208664  0.99442514  0.93367927     0.07420
C717        C  0.20823531  0.95226897  0.93968632    -0.02370
C718        C  0.25574787  0.95785873  0.94906242    -0.02380
C719        C  0.30046227  0.00197136  0.94031948     0.07550
C720        C  0.29536896  0.04349409  0.92851288    -0.02570
Br721      Br  0.35388680  0.10449345  0.91295575    -0.01120
Br722      Br  0.24509521  0.10097822  0.91517238    -0.01190
Br723      Br  0.25627686  0.90764203  0.98263557    -0.01150
Br724      Br  0.15607125  0.88511586  0.92732615    -0.01140
C725        C  0.04499355  0.74854114  0.05762472    -0.02260
C726        C  0.00127400  0.70447759  0.06917883     0.07420
C727        C  0.95913702  0.70928486  0.08202356    -0.02370
C728        C  0.95811741  0.75452941  0.07677076    -0.02380
C729        C  0.00002229  0.79641542  0.06030224     0.07550
C730        C  0.04398367  0.79355119  0.05236291    -0.02570
Br731      Br  0.10398540  0.85252315  0.03536875    -0.01120
Br732      Br  0.10818838  0.75002332  0.05157001    -0.01190
Br733      Br  0.89790878  0.75756847  0.09032724    -0.01150
Br734      Br  0.90497210  0.65676847  0.11185534    -0.01140
C735        C  0.96317438  0.26115136  0.93370180    -0.02260
C736        C  0.00988310  0.30534596  0.92790873     0.07420
C737        C  0.05216002  0.29935551  0.91755528    -0.02370
C738        C  0.04918594  0.25193835  0.91886813    -0.02380
C739        C  0.00481373  0.21019336  0.93215242     0.07550
C740        C  0.96138217  0.21462240  0.93762175    -0.02570
Br741      Br  0.89837653  0.15551498  0.94873781    -0.01120
Br742      Br  0.89978864  0.26098569  0.93343313    -0.01190
Br743      Br  0.10626657  0.24483440  0.90175802    -0.01150
Br744      Br  0.11358514  0.35389399  0.89735193    -0.01140
loop_ 
_geom_bond_atom_site_label_1 
_geom_bond_atom_site_label_2 
_geom_bond_distance 
_geom_bond_site_symmetry_2 
_ccdc_geom_bond_type 
C1           N19   1.352   1_455  A
C1           C38   1.466       .  S
C1          C739   1.491       .  S
N2           N19   1.325   1_455  A
N2           N24   1.320       .  A
N2          Co39   2.092   1_556  S
C3           N28   1.344       .  A
C3           C41   1.489       .  S
C3           H48   1.074       .  S
H4           C45   1.081       .  S
C5           N29   1.317       .  A
C5            C9   1.438   1_554  S
C5           H34   1.082       .  S
Co6          N24   2.096       .  S
Co6          N14   2.058       .  S
Co6          N46   2.052       .  S
Co6          N22   2.083       .  S
Co6         Cl50   2.428       .  S
N7           C45   1.345       .  A
N7           N14   1.319   1_665  A
N7           Co8   2.106       .  S
Co8          N11   2.112       .  S
Co8          N28   2.118   1_655  S
Co8          N15   2.086   1_556  S
Co8         Cl50   2.469   1_665  S
C9           N47   1.363       .  A
C9          C686   1.476       .  S
N10          N17   1.319   1_565  A
N10          N40   1.326       .  A
N10         Co43   2.090       .  S
N11          N29   1.316   1_556  A
N11          N47   1.331       .  A
N12          C41   1.353   1_545  A
N12          N22   1.326       .  A
H13          C38   1.081       .  S
N14          N35   1.318       .  A
N15          N33   1.321       .  A
N15          N20   1.325   1_655  A
C16          N20   1.351   1_655  A
C16          C44   1.470       .  S
C16         C729   1.496   1_655  S
N17          C32   1.347       .  A
N17         Co39   2.094   1_655  S
C18          N46   1.327       .  A
C18          C21   1.446   1_556  S
C18          H52   1.081       .  S
C21          N42   1.352       .  A
C21         C699   1.456       .  S
N22          N28   1.316   1_545  A
N23          C49   1.345       .  A
N23          N25   1.317   1_445  A
N23         Co39   2.103       .  S
N24          C38   1.344       .  A
N25          N53   1.317       .  A
N25         Co43   2.046       .  S
H26          C49   1.081       .  S
H27          C44   1.081       .  S
N29         Co43   2.021       .  S
N30          N42   1.324       .  A
N30          N46   1.318   1_554  A
N30         Co39   2.079       .  S
C31          N35   1.345   1_665  A
C31          C45   1.476       .  S
C31         C669   1.490       .  S
C32          C51   1.465       .  S
C32          H36   1.081       .  S
N33          C44   1.348       .  A
N33         Co43   2.108       .  S
C37          N53   1.343   1_445  A
C37          C49   1.473       .  S
C37         C679   1.483       .  S
Co39        Cl50   2.470   1_554  S
N40          C51   1.348   1_565  A
C41         C716   1.528       .  S
Co43        Cl50   2.418   1_664  S
C51         C709   1.484       .  S
C54          N72   1.348   1_465  A
C54          C91   1.472       .  S
C54         C676   1.499       .  S
N55          N72   1.320       .  A
N55          N77   1.317   1_645  A
N55         Co92   2.084   1_655  S
C56          N81   1.345       .  A
C56          C94   1.476   1_565  S
C56         H101   1.081       .  S
H57          C98   1.060       .  S
C58          N82   1.338       .  A
C58          C62   1.476       .  S
C58          H87   1.073       .  S
Co59         N77   2.074       .  S
Co59         N67   2.142       .  S
Co59         N99   2.086   1_565  S
Co59         N75   2.032   1_565  S
Co59       Cl103   2.427   1_565  S
N60          C98   1.353   1_455  A
N60          N67   1.351       .  A
N60         Co61   2.029       .  S
Co61         N64   2.115   1_455  S
Co61         N81   2.091       .  S
Co61         N68   2.089   1_565  S
Co61       Cl103   2.435   1_565  S
C62         N100   1.365       .  A
C62         C606   1.535       .  S
N63          N70   1.315   1_565  A
N63          N93   1.306       .  A
N63         Co96   2.034   1_565  S
N64          N82   1.305       .  A
N64         N100   1.331       .  A
N65          C94   1.325       .  A
N65          N75   1.304       .  A
H66          C91   1.080       .  S
N67          N88   1.328       .  A
N68          N86   1.319   1_455  A
N68          N73   1.322   1_545  A
C69          N73   1.350   1_545  A
C69          C97   1.465   1_455  S
C69         C666   1.492   1_455  S
N70          C85   1.343       .  A
N70         Co92   2.093   1_655  S
C71          N99   1.343       .  A
C71          C74   1.471       .  S
C71         H105   1.080       .  S
C74          N95   1.359       .  A
C74         C616   1.517       .  S
N75          N81   1.315   1_545  A
N76         C102   1.320       .  A
N76          N78   1.315   1_455  A
N76         Co92   2.007       .  S
N77          C91   1.341       .  A
N78         N106   1.327       .  A
N78         Co96   2.114       .  S
H79         C102   1.082       .  S
H80          C97   1.081       .  S
N82         Co96   2.066   1_565  S
N83          N95   1.332       .  A
N83          N99   1.310       .  A
N83         Co92   2.101       .  S
C84          N88   1.367   1_655  A
C84          C98   1.445       .  S
C84         C646   1.464   1_655  S
C85         C104   1.474       .  S
C85          H89   1.079       .  S
N86          C97   1.338       .  A
N86         Co96   2.068       .  S
C90         N106   1.356       .  A
C90         C102   1.437   1_655  S
C90         C656   1.467       .  S
Co92       Cl103   2.428       .  S
N93         C104   1.329   1_565  A
C94         C636   1.468   1_545  S
Co96       Cl103   2.422   1_655  S
C104        C629   1.473       .  S
C107        N125   1.353       .  A
C107        C144   1.460       .  S
C107        C599   1.479       .  S
N108        N125   1.325       .  A
N108        N130   1.319       .  A
N108       Co145   2.090   1_554  S
C109        N134   1.344       .  A
C109        C147   1.472       .  S
C109        H154   1.080       .  S
H110        C151   1.078       .  S
C111        N135   1.321       .  A
C111        C115   1.436   1_556  S
C111        H140   1.079       .  S
Co112       N130   2.086       .  S
Co112       N120   2.055       .  S
Co112       N152   2.061       .  S
Co112       N128   2.111       .  S
Co112      Cl156   2.415       .  S
N113        C151   1.346       .  A
N113        N120   1.314   1_655  A
N113       Co114   2.099       .  S
Co114       N117   2.118       .  S
Co114       N134   2.087       .  S
Co114       N121   2.063   1_554  S
Co114      Cl156   2.469   1_655  S
C115        N153   1.361       .  A
C115        C569   1.467       .  S
N116        N123   1.315   1_655  A
N116        N146   1.326       .  A
N116       Co149   2.099       .  S
N117        N135   1.320   1_554  A
N117        N153   1.331       .  A
N118        C147   1.358   1_455  A
N118        N128   1.327       .  A
H119        C144   1.081       .  S
N120        N141   1.315       .  A
N121        N139   1.318       .  A
N121        N126   1.317       .  A
C122        N126   1.342       .  A
C122        C150   1.477       .  S
C122        C589   1.498       .  S
N123        C138   1.344       .  A
N123       Co145   2.089       .  S
C124        N152   1.325       .  A
C124        C127   1.451   1_554  S
C124        H158   1.081       .  S
C127        N148   1.354       .  A
C127        C579   1.472       .  S
N128        N134   1.316   1_455  A
N129        C155   1.344       .  A
N129        N131   1.321   1_455  A
N129       Co145   2.106       .  S
N130        C144   1.341       .  A
N131        N159   1.320       .  A
N131       Co149   2.062       .  S
H132        C155   1.081       .  S
H133        C150   1.081       .  S
N135       Co149   2.035       .  S
N136        N148   1.330       .  A
N136        N152   1.320   1_556  A
N136       Co145   2.089       .  S
C137        N141   1.341       .  A
C137        C151   1.485   1_455  S
C137        C556   1.506       .  S
C138        C157   1.477       .  S
C138        H142   1.078       .  S
N139        C150   1.348       .  A
N139       Co149   2.105       .  S
C143        N159   1.345   1_455  A
C143        C155   1.467       .  S
C143        C549   1.471       .  S
Co145      Cl156   2.473   1_556  S
N146        C157   1.354   1_655  A
C147        C726   1.518   1_655  S
Co149      Cl156   2.431   1_656  S
C157        C736   1.518       .  S
C160        N178   1.328       .  A
C160        C197   1.480   1_455  S
C160        C659   1.479   1_455  S
N161        N178   1.306       .  A
N161        N183   1.314   1_455  A
N161       Co198   2.036   1_455  S
C162        N187   1.350       .  A
C162        C200   1.483       .  S
C162        H207   1.077       .  S
H163        C204   1.082       .  S
C164        N188   1.320       .  A
C164        C168   1.435       .  S
C164        H193   1.082       .  S
Co165       N183   2.087       .  S
Co165       N173   2.067   1_655  S
Co165       N205   2.018       .  S
Co165       N181   2.091       .  S
Co165      Cl209   2.443   1_655  S
N166        C204   1.341       .  A
N166        N173   1.319       .  A
N166       Co167   2.082       .  S
Co167       N170   2.129       .  S
Co167       N187   2.113   1_455  S
Co167       N174   2.026       .  S
Co167      Cl209   2.436       .  S
C168        N206   1.366       .  A
C168        C519   1.476       .  S
N169        N176   1.315       .  A
N169        N199   1.329       .  A
N169       Co202   2.089       .  S
N170        N188   1.319       .  A
N170        N206   1.334       .  A
N171        C200   1.354       .  A
N171        N181   1.326       .  A
H172        C197   1.080       .  S
N173        N194   1.320       .  A
N174        N192   1.319       .  A
N174        N179   1.305   1_455  A
C175        N179   1.330       .  A
C175        C203   1.476   1_655  S
C175        C649   1.457       .  S
N176        C191   1.346       .  A
N176       Co198   2.094   1_455  S
C177        N205   1.320       .  A
C177        C180   1.432       .  S
C177        H211   1.079       .  S
C180        N201   1.365       .  A
C180        C509   1.474       .  S
N181        N187   1.313       .  A
N182        C208   1.340       .  A
N182        N184   1.318   1_655  A
N182       Co198   2.081       .  S
N183        C197   1.345       .  A
N184        N212   1.321       .  A
N184       Co202   2.075       .  S
H185        C208   1.081       .  S
H186        C203   1.081       .  S
N188       Co202   2.030       .  S
N189        N201   1.335       .  A
N189        N205   1.318       .  A
N189       Co198   2.135       .  S
C190        N194   1.346       .  A
C190        C204   1.465       .  S
C190        C559   1.482       .  S
C191        C210   1.461       .  S
C191        H195   1.081       .  S
N192        C203   1.351       .  A
N192       Co202   2.101       .  S
C196        N212   1.350   1_655  A
C196        C208   1.467       .  S
C196        C546   1.488       .  S
Co198      Cl209   2.426   1_655  S
N199        C210   1.352       .  A
C200        C526   1.529       .  S
Co202      Cl209   2.443       .  S
C210        C536   1.489       .  S
C213        N231   1.362       .  A
C213        C250   1.470   1_545  S
C213        C719   1.522       .  S
N214        N231   1.334       .  A
N214        N236   1.316   1_545  A
N214       Co251   2.116       .  S
C215        N240   1.335       .  A
C215        C253   1.458       .  S
C215        H260   1.082   1_556  S
H216        C257   1.081       .  S
C217        N241   1.332       .  A
C217        C221   1.449   1_545  S
C217        H246   1.082       .  S
Co218       N236   2.086       .  S
Co218       N226   2.056   1_556  S
Co218       N258   2.046       .  S
Co218       N234   2.092       .  S
Co218      Cl262   2.422   1_566  S
N219        C257   1.349       .  A
N219        N226   1.321       .  A
N219       Co220   2.095       .  S
Co220       N223   2.111       .  S
Co220       N240   2.073   1_554  S
Co220       N227   2.101       .  S
Co220      Cl262   2.476   1_565  S
C221        N259   1.358       .  A
C221        C479   1.479       .  S
N222        N229   1.318       .  A
N222        N252   1.329       .  A
N222       Co255   2.092       .  S
N223        N241   1.319   1_565  A
N223        N259   1.329       .  A
N224        C253   1.351       .  A
N224        N234   1.327       .  A
H225        C250   1.079       .  S
N226        N247   1.312   1_554  A
N227        N245   1.319   1_565  A
N227        N232   1.330       .  A
C228        N232   1.355   1_545  A
C228        C256   1.454       .  S
C228        C706   1.485       .  S
N229        C244   1.327       .  A
N229       Co251   2.063   1_554  S
C230        N258   1.329       .  A
C230        C233   1.455   1_565  S
C230        H264   1.080       .  S
C233        N254   1.363       .  A
C233        C466   1.501       .  S
N234        N240   1.320       .  A
N235        C261   1.351       .  A
N235        N237   1.320   1_556  A
N235       Co251   2.108       .  S
N236        C250   1.337       .  A
N237        N265   1.310       .  A
N237       Co255   2.038       .  S
H238        C261   1.081       .  S
H239        C256   1.081       .  S
N241       Co255   2.052       .  S
N242        N254   1.331       .  A
N242        N258   1.316   1_545  A
N242       Co251   2.119       .  S
C243        N247   1.338   1_554  A
C243        C257   1.468       .  S
C243        C576   1.463       .  S
C244        C263   1.458       .  S
C244        H248   1.081   1_554  S
N245        C256   1.341       .  A
N245       Co255   2.085       .  S
C249        N265   1.333   1_556  A
C249        C261   1.478       .  S
C249        C566   1.468       .  S
Co251      Cl262   2.471   1_556  S
N252        C263   1.355       .  A
C253        C489   1.480       .  S
Co255      Cl262   2.422       .  S
C263        C499   1.486       .  S
C266        N284   1.359       .  A
C266        C303   1.480       .  S
C266        C456   1.531       .  S
N267        N284   1.329       .  A
N267        N289   1.310       .  A
N267       Co304   2.101       .  S
C268        N293   1.316       .  A
C268        C306   1.433   1_565  S
C268        H313   1.077       .  S
H269        C310   1.081       .  S
C270        N294   1.337       .  A
C270        C274   1.457   1_565  S
C270        H299   1.082       .  S
Co271       N289   2.095       .  S
Co271       N279   2.014       .  S
Co271       N311   2.081       .  S
Co271       N287   2.087       .  S
Co271      Cl315   2.435       .  S
N272        C310   1.360       .  A
N272        N279   1.320       .  A
N272       Co273   2.156       .  S
Co273       N276   2.085       .  S
Co273       N293   2.029   1_545  S
Co273       N280   2.112   1_545  S
Co273      Cl315   2.436       .  S
C274        N312   1.354       .  A
C274        C476   1.483       .  S
N275        N282   1.317   1_565  A
N275        N305   1.323       .  A
N275       Co308   2.087       .  S
N276        N294   1.318   1_545  A
N276        N312   1.326       .  A
N277        C306   1.357       .  A
N277        N287   1.324       .  A
H278        C303   1.075       .  S
N279        N300   1.309       .  A
N280        N298   1.309       .  A
N280        N285   1.332       .  A
C281        N285   1.362       .  A
C281        C309   1.476       .  S
C281        C446   1.534       .  S
N282        C297   1.319       .  A
N282       Co304   2.033       .  S
C283        N311   1.338       .  A
C283        C286   1.457   1_545  S
C283        H317   1.081       .  S
C286        N307   1.353       .  A
C286        C469   1.476       .  S
N287        N293   1.315   1_545  A
N288        C314   1.359       .  A
N288        N290   1.319       .  A
N288       Co304   2.146   1_565  S
N289        C303   1.346       .  A
N290        N318   1.307       .  A
N290       Co308   2.005       .  S
H291        C314   1.081       .  S
H292        C309   1.074       .  S
N294       Co308   2.073       .  S
N295        N307   1.326       .  A
N295        N311   1.320   1_565  A
N295       Co304   2.085   1_565  S
C296        N300   1.329       .  A
C296        C310   1.488       .  S
C296        C506   1.480       .  S
C297        C316   1.437       .  S
C297        H301   1.079       .  S
N298        C309   1.345       .  A
N298       Co308   2.091       .  S
C302        N318   1.324       .  A
C302        C314   1.486       .  S
C302        C516   1.470       .  S
Co304      Cl315   2.439       .  S
N305        C316   1.356   1_565  A
C306        C626   1.468       .  S
Co308      Cl315   2.431   1_565  S
C316        C639   1.467   1_545  S
C319        N337   1.350       .  A
C319        C356   1.477       .  S
C319        C596   1.507       .  S
N320        N337   1.322       .  A
N320        N342   1.314       .  A
N320       Co357   2.084       .  S
C321        N346   1.326       .  A
C321        C359   1.448   1_556  S
C321        H366   1.082       .  S
H322        C363   1.081       .  S
C323        N347   1.345       .  A
C323        C327   1.467       .  S
C323        H352   1.081       .  S
Co324       N342   2.085       .  S
Co324       N332   2.097   1_554  S
Co324       N364   2.100       .  S
Co324       N340   2.093       .  S
Co324      Cl368   2.477       .  S
N325        C363   1.339       .  A
N325        N332   1.318       .  A
N325       Co326   2.070       .  S
Co326       N329   2.063       .  S
Co326       N346   2.054       .  S
Co326       N333   2.076       .  S
Co326      Cl368   2.414   1_556  S
C327        N365   1.344       .  A
C327        C426   1.479       .  S
N328        N335   1.316   1_556  A
N328        N358   1.329       .  A
N328       Co361   2.111       .  S
N329        N347   1.320       .  A
N329        N365   1.319       .  A
N330        C359   1.358       .  A
N330        N340   1.326       .  A
H331        C356   1.077       .  S
N332        N353   1.325       .  A
N333        N351   1.317       .  A
N333        N338   1.323       .  A
C334        N338   1.347       .  A
C334        C362   1.464       .  S
C334        C586   1.475       .  S
N335        C350   1.325       .  A
N335       Co357   2.030       .  S
C336        N364   1.345       .  A
C336        C339   1.469       .  S
C336        H370   1.081       .  S
C339        N360   1.346       .  A
C339        C439   1.484       .  S
N340        N346   1.318   1_554  A
N341        C367   1.347       .  A
N341        N343   1.319       .  A
N341       Co357   2.109       .  S
N342        C356   1.342       .  A
N343        N371   1.319       .  A
N343       Co361   2.062   1_554  S
H344        C367   1.081       .  S
H345        C362   1.081       .  S
N347       Co361   2.095       .  S
N348        N360   1.321       .  A
N348        N364   1.320       .  A
N348       Co357   2.067       .  S
C349        N353   1.354       .  A
C349        C363   1.457       .  S
C349        C486   1.473       .  S
C350        C369   1.436   1_554  S
C350        H354   1.081       .  S
N351        C362   1.343       .  A
N351       Co361   2.088       .  S
C355        N371   1.343       .  A
C355        C367   1.472       .  S
C355        C496   1.480       .  S
Co357      Cl368   2.412       .  S
N358        C369   1.362       .  A
C359        C689   1.472       .  S
Co361      Cl368   2.470   1_556  S
C369        C696   1.464       .  S
C372        N390   1.351       .  A
C372        C409   1.462       .  S
C372        C539   1.489       .  S
N373        N390   1.329       .  A
N373        N395   1.324       .  A
N373       Co410   2.104       .  S
C374        N399   1.339       .  A
C374        C412   1.456       .  S
C374        H419   1.082       .  S
H375        C416   1.081       .  S
C376        N400   1.342       .  A
C376        C380   1.464       .  S
C376        H405   1.082       .  S
Co377       N395   2.107       .  S
Co377       N385   2.102       .  S
Co377       N417   2.098       .  S
Co377       N393   2.128       .  S
Co377      Cl421   2.479       .  S
N378        C416   1.349       .  A
N378        N385   1.321       .  A
N378       Co379   2.115       .  S
Co379       N382   2.088       .  S
Co379       N399   2.078       .  S
Co379       N386   2.095       .  S
Co379      Cl421   2.445       .  S
C380        N418   1.349       .  A
C380        C436   1.483       .  S
N381        N388   1.320       .  A
N381        N411   1.334       .  A
N381       Co414   2.128       .  S
N382        N400   1.323       .  A
N382        N418   1.324       .  A
N383        C412   1.363       .  A
N383        N393   1.333       .  A
H384        C409   1.081       .  S
N385        N406   1.329       .  A
N386        N404   1.319       .  A
N386        N391   1.326       .  A
C387        N391   1.353       .  A
C387        C415   1.483       .  S
C387        C529   1.526       .  S
N388        C403   1.342       .  A
N388       Co410   2.088       .  S
C389        N417   1.343       .  A
C389        C392   1.464       .  S
C389        H423   1.081       .  S
C392        N413   1.346       .  A
C392        C429   1.480       .  S
N393        N399   1.320       .  A
N394        C420   1.348       .  A
N394        N396   1.322       .  A
N394       Co410   2.114       .  S
N395        C409   1.346       .  A
N396        N424   1.331       .  A
N396       Co414   2.113       .  S
H397        C420   1.081       .  S
H398        C415   1.078       .  S
N400       Co414   2.093       .  S
N401        N413   1.322       .  A
N401        N417   1.323       .  A
N401       Co410   2.077       .  S
C402        N406   1.354       .  A
C402        C416   1.470       .  S
C402        C449   1.503       .  S
C403        C422   1.461       .  S
C403        H407   1.082       .  S
N404        C415   1.346       .  A
N404       Co414   2.115       .  S
C408        N424   1.357       .  A
C408        C420   1.469       .  S
C408        C459   1.508       .  S
Co410      Cl421   2.448       .  S
N411        C422   1.362       .  A
C412        C609   1.501       .  S
Co414      Cl421   2.481       .  S
C422        C619   1.501       .  S
C425        C426   1.417       .  A
C425        C430   1.408       .  A
C425       Br432   1.934       .  S
C426        C427   1.405       .  A
C427        C428   1.409       .  A
C427       Br434   1.931       .  S
C428        C429   1.416       .  A
C428       Br433   1.931       .  S
C429        C430   1.407       .  A
C430       Br431   1.933       .  S
C435        C436   1.413       .  A
C435        C440   1.409       .  A
C435       Br442   1.932       .  S
C436        C437   1.410       .  A
C437        C438   1.411       .  A
C437       Br444   1.933       .  S
C438        C439   1.416       .  A
C438       Br443   1.931       .  S
C439        C440   1.410       .  A
C440       Br441   1.933       .  S
C445        C446   1.430       .  A
C445        C450   1.422       .  A
C445       Br452   1.929       .  S
C446        C447   1.430       .  A
C447        C448   1.420       .  A
C447       Br454   1.930       .  S
C448        C449   1.407       .  A
C448       Br453   1.932       .  S
C449        C450   1.409       .  A
C450       Br451   1.932       .  S
C455        C456   1.429       .  A
C455        C460   1.421       .  A
C455       Br462   1.934       .  S
C456        C457   1.426       .  A
C457        C458   1.420       .  A
C457       Br464   1.928       .  S
C458        C459   1.408       .  A
C458       Br463   1.929       .  S
C459        C460   1.412       .  A
C460       Br461   1.928       .  S
C465        C466   1.420       .  A
C465        C470   1.413       .  A
C465       Br472   1.931       .  S
C466        C467   1.425   1_545  A
C467        C468   1.407       .  A
C467       Br474   1.935       .  S
C468        C469   1.399       .  A
C468       Br473   1.932       .  S
C469        C470   1.410   1_565  A
C470       Br471   1.934       .  S
C475        C476   1.416   1_565  A
C475        C480   1.411       .  A
C475       Br482   1.933       .  S
C476        C477   1.410       .  A
C477        C478   1.407       .  A
C477       Br484   1.931       .  S
C478        C479   1.410   1_545  A
C478       Br483   1.932       .  S
C479        C480   1.412       .  A
C480       Br481   1.932       .  S
C485        C486   1.406       .  A
C485        C490   1.411       .  A
C485       Br492   1.927       .  S
C486        C487   1.405       .  A
C487        C488   1.402       .  A
C487       Br494   1.925       .  S
C488        C489   1.408       .  A
C488       Br493   1.927       .  S
C489        C490   1.416       .  A
C490       Br491   1.929       .  S
C495        C496   1.411       .  A
C495        C500   1.417       .  A
C495       Br502   1.928       .  S
C496        C497   1.414       .  A
C497        C498   1.393       .  A
C497       Br504   1.935   1_554  S
C498        C499   1.405       .  A
C498       Br503   1.934       .  S
C499        C500   1.418       .  A
C500       Br501   1.927       .  S
C505        C506   1.414       .  A
C505        C510   1.407       .  A
C505       Br512   1.931       .  S
C506        C507   1.411       .  A
C507        C508   1.412       .  A
C507       Br514   1.918       .  S
C508        C509   1.411       .  A
C508       Br513   1.922       .  S
C509        C510   1.405       .  A
C510       Br511   1.929       .  S
C515        C516   1.408       .  A
C515        C520   1.405       .  A
C515       Br522   1.932       .  S
C516        C517   1.416       .  A
C517        C518   1.412       .  A
C517       Br524   1.923       .  S
C518        C519   1.408       .  A
C518       Br523   1.929       .  S
C519        C520   1.412       .  A
C520       Br521   1.931       .  S
C525        C526   1.423       .  A
C525        C530   1.416       .  A
C525       Br532   1.931       .  S
C526        C527   1.421       .  A
C527        C528   1.425       .  A
C527       Br534   1.933       .  S
C528        C529   1.428       .  A
C528       Br533   1.938       .  S
C529        C530   1.418       .  A
C530       Br531   1.930       .  S
C535        C536   1.412       .  A
C535        C540   1.414       .  A
C535       Br542   1.929       .  S
C536        C537   1.410       .  A
C537        C538   1.414       .  A
C537       Br544   1.928       .  S
C538        C539   1.411       .  A
C538       Br543   1.927       .  S
C539        C540   1.410       .  A
C540       Br541   1.928       .  S
C545        C546   1.415       .  A
C545        C550   1.408   1_655  A
C545       Br552   1.932       .  S
C546        C547   1.421   1_655  A
C547        C548   1.408       .  A
C547       Br554   1.934       .  S
C548        C549   1.407       .  A
C548       Br553   1.936       .  S
C549        C550   1.404       .  A
C550       Br551   1.929       .  S
C555        C556   1.418   1_655  A
C555        C560   1.409       .  A
C555       Br562   1.931       .  S
C556        C557   1.435       .  A
C557        C558   1.409       .  A
C557       Br564   1.941       .  S
C558        C559   1.402       .  A
C558       Br563   1.939       .  S
C559        C560   1.414   1_455  A
C560       Br561   1.937       .  S
C565        C566   1.412       .  A
C565        C570   1.410   1_556  A
C565       Br572   1.930       .  S
C566        C567   1.411       .  A
C567        C568   1.402   1_556  A
C567       Br574   1.935       .  S
C568        C569   1.406       .  A
C568       Br573   1.932       .  S
C569        C570   1.412       .  A
C570       Br571   1.927       .  S
C575        C576   1.395       .  A
C575        C580   1.395   1_554  A
C575       Br582   1.920       .  S
C576        C577   1.414       .  A
C577        C578   1.416   1_554  A
C577       Br584   1.924       .  S
C578        C579   1.409       .  A
C578       Br583   1.925       .  S
C579        C580   1.395       .  A
C580       Br581   1.919       .  S
C585        C586   1.403       .  A
C585        C590   1.408       .  A
C585       Br592   1.939   1_556  S
C586        C587   1.406       .  A
C587        C588   1.412       .  A
C587       Br594   1.930       .  S
C588        C589   1.417       .  A
C588       Br593   1.930       .  S
C589        C590   1.430       .  A
C590       Br591   1.939   1_556  S
C595        C596   1.424       .  A
C595        C600   1.408       .  A
C595       Br602   1.928       .  S
C596        C597   1.429       .  A
C597        C598   1.413       .  A
C597       Br604   1.934       .  S
C598        C599   1.401       .  A
C598       Br603   1.931       .  S
C599        C600   1.402       .  A
C600       Br601   1.928       .  S
C605        C606   1.436       .  A
C605        C610   1.419       .  A
C605       Br612   1.930       .  S
C606        C607   1.432       .  A
C607        C608   1.421       .  A
C607       Br614   1.935       .  S
C608        C609   1.408       .  A
C608       Br613   1.933       .  S
C609        C610   1.405       .  A
C610       Br611   1.936       .  S
C615        C616   1.423       .  A
C615        C620   1.423       .  A
C615       Br622   1.930       .  S
C616        C617   1.424       .  A
C617        C618   1.415       .  A
C617       Br624   1.932       .  S
C618        C619   1.406       .  A
C618       Br623   1.924       .  S
C619        C620   1.409       .  A
C620       Br621   1.928       .  S
C625        C626   1.429       .  A
C625        C630   1.399       .  A
C625       Br632   1.939       .  S
C626        C627   1.392       .  A
C627        C628   1.395       .  A
C627       Br634   1.936       .  S
C628        C629   1.431       .  A
C628       Br633   1.934       .  S
C629        C630   1.396       .  A
C630       Br631   1.931       .  S
C635        C636   1.433       .  A
C635        C640   1.396       .  A
C635       Br642   1.945       .  S
C636        C637   1.396       .  A
C637        C638   1.396       .  A
C637       Br644   1.931       .  S
C638        C639   1.426       .  A
C638       Br643   1.938       .  S
C639        C640   1.394       .  A
C640       Br641   1.935       .  S
C645        C646   1.415       .  A
C645        C650   1.408       .  A
C645       Br652   1.921       .  S
C646        C647   1.411   1_455  A
C647        C648   1.400       .  A
C647       Br654   1.933       .  S
C648        C649   1.406       .  A
C648       Br653   1.933       .  S
C649        C650   1.407   1_655  A
C650       Br651   1.930       .  S
C655        C656   1.417       .  A
C655        C660   1.398       .  A
C655       Br662   1.927       .  S
C656        C657   1.391       .  A
C657        C658   1.399       .  A
C657       Br664   1.933       .  S
C658        C659   1.436       .  A
C658       Br663   1.942       .  S
C659        C660   1.404       .  A
C660       Br661   1.931       .  S
C665        C666   1.412       .  A
C665        C670   1.408       .  A
C665       Br672   1.934   1_655  S
C666        C667   1.422   1_545  A
C667        C668   1.410       .  A
C667       Br674   1.939       .  S
C668        C669   1.415       .  A
C668       Br673   1.933       .  S
C669        C670   1.415   1_565  A
C670       Br671   1.936       .  S
C675        C676   1.428   1_545  A
C675        C680   1.410       .  A
C675       Br682   1.940       .  S
C676        C677   1.416       .  A
C677        C678   1.408       .  A
C677       Br684   1.933       .  S
C678        C679   1.411   1_565  A
C678       Br683   1.936       .  S
C679        C680   1.411       .  A
C680       Br681   1.936       .  S
C685        C686   1.415       .  A
C685        C690   1.408   1_556  A
C685       Br692   1.931       .  S
C686        C687   1.416   1_556  A
C687        C688   1.402       .  A
C687       Br694   1.938   1_554  S
C688        C689   1.408       .  A
C688       Br693   1.934       .  S
C689        C690   1.411       .  A
C690       Br691   1.934       .  S
C695        C696   1.406       .  A
C695        C700   1.404   1_556  A
C695       Br702   1.930       .  S
C696        C697   1.415   1_556  A
C697        C698   1.397       .  A
C697       Br704   1.921       .  S
C698        C699   1.397       .  A
C698       Br703   1.931       .  S
C699        C700   1.410       .  A
C700       Br701   1.927       .  S
C705        C706   1.411   1_565  A
C705        C710   1.413   1_565  A
C705       Br712   1.928   1_554  S
C706        C707   1.410       .  A
C707        C708   1.412       .  A
C707       Br714   1.929       .  S
C708        C709   1.409       .  A
C708       Br713   1.928       .  S
C709        C710   1.410       .  A
C710       Br711   1.929   1_544  S
C715        C716   1.435   1_545  A
C715        C720   1.430       .  A
C715       Br722   1.934       .  S
C716        C717   1.413       .  A
C717        C718   1.403       .  A
C717       Br724   1.927       .  S
C718        C719   1.412   1_565  A
C718       Br723   1.909       .  S
C719        C720   1.418       .  A
C720       Br721   1.933       .  S
C725        C726   1.419       .  A
C725        C730   1.412       .  A
C725       Br732   1.913       .  S
C726        C727   1.422   1_455  A
C727        C728   1.420       .  A
C727       Br734   1.931       .  S
C728        C729   1.414   1_655  A
C728       Br733   1.930       .  S
C729        C730   1.407       .  A
C730       Br731   1.936       .  S
C735        C736   1.427   1_655  A
C735        C740   1.413       .  A
C735       Br742   1.928       .  S
C736        C737   1.425       .  A
C737        C738   1.417       .  A
C737       Br744   1.932       .  S
C738        C739   1.412       .  A
C738       Br743   1.933       .  S
C739        C740   1.405   1_455  A
C740       Br741   1.936       .  S
