geometry optimzed in LAMMPS
_audit_creation_date              2020-11-30 
_audit_creation_method            'lammps2cif' 
_symmetry_space_group_name_H-M    'P1' 
_symmetry_Int_Tables_number       1 
_symmetry_cell_setting            triclinic 
loop_ 
_symmetry_equiv_pos_as_xyz 
  x,y,z 
_cell_length_a                    45.80153397 
_cell_length_b                    45.42242159374079 
_cell_length_c                    30.401163753069056 
_cell_angle_alpha                 89.65095078666741 
_cell_angle_beta                  89.3974898631454 
_cell_angle_gamma                 87.8406175491441 
loop_ 
_atom_site_label 
_atom_site_type_symbol 
_atom_site_fract_x 
_atom_site_fract_y 
_atom_site_fract_z 
_atom_site_charge 
O1          O  0.21243030  0.46745641  0.29108178    -0.75000
O2          O  0.21225497  0.01674335  0.19504271    -0.75000
O3          O  0.21754899  0.02126031  0.28297053    -0.75000
O4          O  0.20603545  0.46180796  0.20361999    -0.75100
O5          O  0.15784976  0.47027513  0.21051367    -0.75000
O6          O  0.16956625  0.03092374  0.28893634    -0.75000
O7          O  0.16452925  0.02674786  0.20098704    -0.75000
O8          O  0.16436792  0.47533507  0.29878243    -0.75000
Ni9        Ni  0.21440359  0.49355095  0.24117113     1.25400
Ni10       Ni  0.16073033  0.99998348  0.25062772     1.25400
C11         C  0.18846286  0.46255483  0.31135965     0.87200
C12         C  0.18918498  0.03101324  0.18181222     0.87200
C13         C  0.19582024  0.03662679  0.29825268     0.87200
C14         C  0.17975939  0.45578185  0.19440840     0.87400
C15         C  0.20407530  0.11578375  0.44393027     0.86000
C16         C  0.18149289  0.14150613  0.44915275    -0.54300
C17         C  0.18298571  0.15477085  0.99174132     0.08900
C18         C  0.20750711  0.14140678  0.02186500     0.19800
C19         C  0.23309250  0.13030403  0.45066667    -0.55000
C20         C  0.23544584  0.14191455  0.99217957     0.09000
C21         C  0.19865706  0.09630864  0.48458855    -0.54500
C22         C  0.20077084  0.10827144  0.02688973     0.09600
H23         H  0.16415353  0.14721700  0.42641189     0.14100
H24         H  0.20956599  0.15291942  0.05374093    -0.00200
H25         H  0.25065278  0.12784628  0.42735572     0.14400
H26         H  0.19168143  0.07203971  0.98528940     0.14200
C27         C  0.18881548  0.37758801  0.05164246     0.86000
C28         C  0.17279004  0.34958891  0.04483916    -0.54300
C29         C  0.18048984  0.33643097  0.50468736     0.08900
C30         C  0.20507796  0.35249965  0.47824485     0.19800
C31         C  0.22136792  0.36939662  0.04926224    -0.55000
C32         C  0.22987184  0.35682080  0.51216625     0.09000
C33         C  0.18394985  0.39590139  0.00910613    -0.54500
C34         C  0.19294354  0.38477690  0.46884384     0.09600
H35         H  0.15356808  0.34464077  0.06402727     0.14100
H36         H  0.21319865  0.33956829  0.44987383    -0.00200
H37         H  0.23677487  0.37793384  0.07246276     0.14400
H38         H  0.17389884  0.41957634  0.50829204     0.14200
O39         O  0.33976954  0.03372323  0.21348266    -0.75000
O40         O  0.33332338  0.47108938  0.29506342    -0.75000
O41         O  0.33058828  0.47357290  0.20608758    -0.75000
O42         O  0.33982080  0.03134397  0.30261250    -0.75100
O43         O  0.29136992  0.03730652  0.30351942    -0.75000
O44         O  0.28224994  0.48055675  0.20928297    -0.75000
O45         O  0.28472799  0.47684710  0.29838835    -0.75000
O46         O  0.29124529  0.04011538  0.21492470    -0.75000
Ni47       Ni  0.33635415  0.50175552  0.25354515     1.25400
Ni48       Ni  0.28445967  0.50851732  0.25683589     1.25400
C49         C  0.31643129  0.04702340  0.20046919     0.87200
C50         C  0.30862216  0.46372468  0.31025647     0.87200
C51         C  0.30499917  0.46788373  0.19175894     0.87200
C52         C  0.31633781  0.04402731  0.31841748     0.87400
C53         C  0.30442712  0.12465029  0.05413784     0.86000
C54         C  0.31864079  0.15397128  0.04959544    -0.54300
C55         C  0.31504807  0.16848072  0.51146018     0.08900
C56         C  0.29454301  0.15206904  0.47950707     0.19800
C57         C  0.27214678  0.13154352  0.04739434    -0.55000
C58         C  0.26599283  0.14680780  0.50744591     0.09000
C59         C  0.31331236  0.10634169  0.01261143    -0.54500
C60         C  0.30939598  0.12090290  0.47352256     0.09600
H61         H  0.33293956  0.16219818  0.07451015     0.14100
H62         H  0.29040225  0.16434656  0.44843090    -0.00200
H63         H  0.25551998  0.12354979  0.06961604     0.14400
H64         H  0.31851493  0.08399999  0.51579434     0.14200
C65         C  0.29806072  0.38557765  0.45737316     0.86000
C66         C  0.31705166  0.35784518  0.46118785    -0.54300
C67         C  0.31291116  0.34289653  0.99668848     0.08900
C68         C  0.28826543  0.35602670  0.02823430     0.19800
C69         C  0.26677365  0.37544397  0.46186472    -0.55000
C70         C  0.26106076  0.35969896  0.99778355     0.09000
C71         C  0.30229082  0.40324754  0.50006153    -0.54500
C72         C  0.29683509  0.38846376  0.03861080     0.09600
H73         H  0.33447171  0.35229622  0.43773115     0.14100
H74         H  0.28352030  0.34212625  0.05724321    -0.00200
H75         H  0.24951944  0.38287407  0.44012107     0.14400
H76         H  0.30690228  0.42680980  0.00017467     0.14200
O77         O  0.02848409  0.16380705  0.20531077    -0.75000
O78         O  0.46909509  0.16291927  0.29288008    -0.75000
O79         O  0.46925835  0.16567394  0.20356188    -0.75000
O80         O  0.02841651  0.16171088  0.29428830    -0.75100
O81         O  0.02875606  0.21069707  0.29577783    -0.75000
O82         O  0.46909909  0.21452642  0.20713544    -0.75000
O83         O  0.46974365  0.21204889  0.29583243    -0.75000
O84         O  0.02803545  0.21302299  0.20742651    -0.75000
Ni85       Ni  0.49881768  0.16148401  0.24889706     1.25400
Ni86       Ni  0.49878943  0.21403982  0.25176405     1.25400
C87         C  0.03784652  0.18849512  0.19210229     0.87200
C88         C  0.46016429  0.18750599  0.30917133     0.87200
C89         C  0.45970068  0.19105028  0.18973547     0.87200
C90         C  0.03887164  0.18553036  0.30932153     0.87400
C91         C  0.11613077  0.19264749  0.04334086     0.86000
C92         C  0.14449758  0.17355772  0.04165828    -0.54300
C93         C  0.16052439  0.17818765  0.50114153     0.08900
C94         C  0.14649910  0.20214441  0.46999735     0.19800
C95         C  0.12664633  0.22381624  0.03918831    -0.55000
C96         C  0.14231619  0.22999699  0.50027648     0.09000
C97         C  0.10081694  0.18543403  0.00028594    -0.54500
C98         C  0.11541309  0.19075524  0.46126757     0.09600
H99         H  0.15034914  0.15625329  0.06465740     0.14100
H100        H  0.15939295  0.20601544  0.43952685    -0.00200
H101        H  0.12021769  0.24084124  0.06258844     0.14400
H102        H  0.07881991  0.17786004  0.50023549     0.14200
C103        C  0.38370892  0.19777761  0.46010240     0.86000
C104        C  0.35401528  0.18310610  0.46117797    -0.54300
C105        C  0.33672432  0.18835558  0.99612085     0.08900
C106        C  0.35136645  0.21058572  0.02756920     0.19800
C107        C  0.37577904  0.23046261  0.46547627    -0.55000
C108        C  0.35673383  0.23771130  0.99743587     0.09000
C109        C  0.39816936  0.18736657  0.50290001    -0.54500
C110        C  0.38217531  0.19620764  0.03701535     0.09600
H111        H  0.34746968  0.16644164  0.43844252     0.14100
H112        H  0.33855093  0.21608405  0.05782075    -0.00200
H113        H  0.38480531  0.24696869  0.44452503     0.14400
H114        H  0.41866224  0.17835699  0.00075368     0.14200
O115        O  0.46528088  0.29109517  0.29309459    -0.75000
O116        O  0.02349001  0.28491949  0.20058008    -0.75000
O117        O  0.02414918  0.28240988  0.28971299    -0.75000
O118        O  0.46490741  0.29485900  0.20443135    -0.75100
O119        O  0.46978805  0.34338304  0.20748816    -0.75000
O120        O  0.02993726  0.33101969  0.29114671    -0.75000
O121        O  0.02890004  0.33344814  0.20207741    -0.75000
O122        O  0.47089018  0.33940952  0.29706746    -0.75000
Ni123      Ni  0.49423635  0.28662698  0.24664722     1.25400
Ni124      Ni  0.50006938  0.33856732  0.24951830     1.25400
C125        C  0.45845445  0.31601648  0.31086894     0.87200
C126        C  0.03565431  0.30797308  0.18563906     0.87200
C127        C  0.03658739  0.30497114  0.30446849     0.87200
C128        C  0.45775741  0.32097988  0.19167733     0.87400
C129        C  0.11918871  0.30088383  0.44628542     0.86000
C130        C  0.14600758  0.31922009  0.45121710    -0.54300
C131        C  0.16084913  0.31219233  0.99169879     0.08900
C132        C  0.14673430  0.28732510  0.02036167     0.19800
C133        C  0.13056567  0.26910964  0.44926217    -0.55000
C134        C  0.14462836  0.26066173  0.98835855     0.09000
C135        C  0.10207822  0.30730197  0.48936936    -0.54500
C136        C  0.11431292  0.29820794  0.02905704     0.09600
H137        H  0.14876727  0.33971325  0.43401127     0.14100
H138        H  0.15983111  0.28141542  0.04950485    -0.00200
H139        H  0.12368935  0.25291830  0.42631352     0.14400
H140        H  0.07979005  0.31616890  0.98771799     0.14200
C141        C  0.37999998  0.30748658  0.04822680     0.86000
C142        C  0.35341728  0.32754199  0.04308260    -0.54300
C143        C  0.33643281  0.32097641  0.51113197     0.08900
C144        C  0.35025788  0.29583769  0.48145388     0.19800
C145        C  0.36904197  0.27618916  0.04730335    -0.55000
C146        C  0.35596772  0.26932282  0.51412938     0.09000
C147        C  0.39720388  0.31004505  0.00421884    -0.54500
C148        C  0.38152584  0.30618265  0.46786946     0.09600
H149        H  0.35010627  0.34728374  0.06229557     0.14100
H150        H  0.33510037  0.29114227  0.45477341    -0.00200
H151        H  0.37500009  0.25982232  0.07174356     0.14400
H152        H  0.42010088  0.31689777  0.50317751     0.14200
C153        C  0.41376062  0.29627946  0.34813356    -0.20800
C154        C  0.43585923  0.31696538  0.34780597    -0.07400
C155        C  0.43608410  0.33696613  0.38327516     0.13500
C156        C  0.41634267  0.33390862  0.41909880    -0.20900
C157        C  0.39582179  0.31123224  0.42204923    -0.07400
C158        C  0.39315921  0.29382034  0.38307976     0.13500
C159        C  0.36921885  0.27290605  0.37409655    -0.24200
H160        H  0.41224171  0.28180718  0.32005495     0.14700
H161        H  0.41755281  0.34935738  0.44595351     0.14800
C162        C  0.45788269  0.36095233  0.38478269    -0.24200
H163        H  0.35729919  0.28034839  0.34415774     0.05000
H164        H  0.35295592  0.27120132  0.40029396     0.08200
H165        H  0.37886861  0.25049074  0.36779710     0.08200
H166        H  0.45434059  0.37635470  0.35669686     0.08200
H167        H  0.48044259  0.35113354  0.38324192     0.08200
H168        H  0.45572033  0.37401531  0.41548976     0.05000
C169        C  0.41037351  0.30725012  0.16497650    -0.20800
C170        C  0.43486605  0.32434417  0.15876400    -0.07400
C171        C  0.43758008  0.34128613  0.11986593     0.13500
C172        C  0.41826251  0.33656983  0.08561381    -0.20900
C173        C  0.39660976  0.31547235  0.08918484    -0.07400
C174        C  0.39012451  0.30410583  0.13165330     0.13500
C175        C  0.36201357  0.28975810  0.14419993    -0.24200
H176        H  0.40701514  0.29620459  0.19628886     0.14700
H177        H  0.42074469  0.34910168  0.05547741     0.14800
C178        C  0.46067012  0.36360235  0.11180695    -0.24200
H179        H  0.35276713  0.30029165  0.17441326     0.05000
H180        H  0.36637155  0.26596464  0.15112398     0.08200
H181        H  0.34487722  0.29259330  0.11899132     0.08200
H182        H  0.47657445  0.36519384  0.13857905     0.08200
H183        H  0.44990301  0.38570015  0.10716043     0.08200
H184        H  0.47310715  0.35794031  0.08127132     0.05000
C185        C  0.08495426  0.31534375  0.33177429    -0.20800
C186        C  0.05853522  0.30150992  0.33819957    -0.07400
C187        C  0.05255605  0.28699619  0.37786495     0.13500
C188        C  0.07285435  0.28804388  0.41132825    -0.20900
C189        C  0.09902643  0.30351862  0.40677770    -0.07400
C190        C  0.10578931  0.31594173  0.36500609     0.13500
C191        C  0.13467356  0.32856628  0.35314365    -0.24200
H192        H  0.08924667  0.32576860  0.30027476     0.14700
H193        H  0.06826323  0.27631477  0.44164754     0.14800
C194        C  0.02449037  0.27125027  0.38570405    -0.24200
H195        H  0.13706701  0.33203541  0.31709346     0.05000
H196        H  0.15274971  0.31303132  0.36295710     0.03000
H197        H  0.13624861  0.35058278  0.36818541     0.08200
H198        H  0.02309199  0.25267748  0.36238818     0.08200
H199        H  0.00545677  0.28680912  0.38114620     0.08200
H200        H  0.02315470  0.26199584  0.41954560     0.05000
C201        C  0.08679966  0.30430445  0.15239833    -0.20800
C202        C  0.05633697  0.30498725  0.14694043    -0.07400
C203        C  0.04568071  0.30031086  0.10445298     0.13500
C204        C  0.06508299  0.29794657  0.06832215    -0.20900
C205        C  0.09592603  0.29883298  0.07221486    -0.07400
C206        C  0.10667247  0.29985158  0.11633466     0.13500
C207        C  0.13831237  0.29406740  0.12746582    -0.24200
H208        H  0.09508417  0.30596642  0.18551926     0.14700
H209        H  0.05547314  0.29398839  0.03673795     0.14800
C210        C  0.01349604  0.29729426  0.09719587    -0.24200
H211        H  0.14211911  0.29561378  0.16338630     0.05000
H212        H  0.15243132  0.31012349  0.11160133     0.08200
H213        H  0.14509895  0.27132097  0.11774839     0.08200
H214        H  0.00145035  0.31722343  0.10922398     0.08200
H215        H  0.00599085  0.27795313  0.11583154     0.08200
H216        H  0.00822550  0.29424122  0.06198128     0.05000
C217        C  0.42091402  0.16908796  0.14260374    -0.20800
C218        C  0.43803774  0.19329467  0.15249168    -0.07400
C219        C  0.43575527  0.21824224  0.12407918     0.13500
C220        C  0.41647739  0.21855983  0.08838645    -0.20900
C221        C  0.39842425  0.19510484  0.07972903    -0.07400
C222        C  0.40217451  0.16924969  0.10583219     0.13500
C223        C  0.38883655  0.14065814  0.09395009    -0.24200
H224        H  0.42310933  0.14926635  0.16251282     0.14700
H225        H  0.41707806  0.23662489  0.06507175     0.14800
C226        C  0.45456481  0.24428040  0.12937207    -0.24200
H227        H  0.40624910  0.12303922  0.09153574     0.05000
H228        H  0.37789217  0.14161272  0.06167637     0.08200
H229        H  0.37297008  0.13452217  0.11995035     0.08200
H230        H  0.47792019  0.23690573  0.12865977     0.08200
H231        H  0.44883713  0.25488811  0.16095915     0.08200
H232        H  0.45106435  0.26108410  0.10303828     0.05000
C233        C  0.44939917  0.20390986  0.38273200    -0.20800
C234        C  0.44051072  0.18802601  0.34664128    -0.07400
C235        C  0.41369250  0.17414030  0.34703653     0.13500
C236        C  0.39575700  0.17699100  0.38429908    -0.20900
C237        C  0.40430489  0.19321138  0.42120896    -0.07400
C238        C  0.43208747  0.20673400  0.42026469     0.13500
C239        C  0.44456949  0.22442340  0.45762848    -0.24200
H240        H  0.47045002  0.21412574  0.38145342     0.14700
H241        H  0.37490415  0.16692486  0.38321163     0.14800
C242        C  0.40347160  0.15746118  0.30766334    -0.24200
H243        H  0.46588510  0.23372317  0.44838260     0.05000
H244        H  0.44911903  0.21049859  0.48685012     0.08200
H245        H  0.42556945  0.24941525  0.95637587     0.08200
H246        H  0.41865151  0.13836437  0.30095445     0.08200
H247        H  0.40270360  0.17221468  0.27839570     0.08200
H248        H  0.38130057  0.14890765  0.31302811     0.05000
C249        C  0.06146486  0.16236477  0.37666892    -0.20800
C250        C  0.06244942  0.18403738  0.34359675    -0.07400
C251        C  0.08601530  0.20355449  0.34441832     0.13500
C252        C  0.10492885  0.20350834  0.38099656    -0.20900
C253        C  0.10130157  0.18451191  0.41719955    -0.07400
C254        C  0.08119637  0.16158061  0.41208137     0.13500
C255        C  0.08106653  0.13485837  0.44175654    -0.24200
H256        H  0.04509206  0.14578588  0.37503220     0.14700
H257        H  0.12271965  0.21836457  0.38060825     0.14800
C258        C  0.09278531  0.22396533  0.30669054    -0.24200
H259        H  0.08322621  0.11462849  0.42146192     0.05000
H260        H  0.06246144  0.13233692  0.96116647     0.08200
H261        H  0.09966082  0.13390087  0.46484412     0.08200
H262        H  0.07894032  0.22087284  0.27759706     0.08200
H263        H  0.11575148  0.21974103  0.29568674     0.08200
H264        H  0.09021851  0.24715738  0.31767990     0.05000
C265        C  0.05097282  0.20672659  0.12055129    -0.20800
C266        C  0.05878372  0.18915143  0.15642785    -0.07400
C267        C  0.08515768  0.17237655  0.15648785     0.13500
C268        C  0.10310683  0.17305739  0.11921331    -0.20900
C269        C  0.09535370  0.19038854  0.08216851    -0.07400
C270        C  0.06844139  0.20750046  0.08307432     0.13500
C271        C  0.05676199  0.22627915  0.04512118    -0.24200
H272        H  0.03034711  0.21928438  0.12142442     0.14700
H273        H  0.12351233  0.16055316  0.12066100     0.14800
C274        C  0.09563296  0.15468832  0.19585571    -0.24200
H275        H  0.03752854  0.24032955  0.05526453     0.05000
H276        H  0.04930613  0.21375337  0.52043737     0.08200
H277        H  0.07313563  0.24135108  0.03204483     0.08200
H278        H  0.08132195  0.15763327  0.22521709     0.08200
H279        H  0.11769590  0.16166484  0.20519544     0.08200
H280        H  0.09690442  0.13095113  0.18746607     0.05000
C281        C  0.28252953  0.43423496  0.08153428    -0.20800
C282        C  0.29561928  0.40547627  0.08241255    -0.07400
C283        C  0.30963040  0.39679272  0.12257841     0.13500
C284        C  0.31328645  0.41772559  0.15656774    -0.20900
C285        C  0.30133483  0.44665838  0.15415292    -0.07400
C286        C  0.28491309  0.45448031  0.11639446     0.13500
C287        C  0.27052378  0.48469053  0.11192488    -0.24200
H288        H  0.27046432  0.44127706  0.05261231     0.14700
H289        H  0.32479295  0.41097578  0.18617010     0.14800
C290        C  0.32038993  0.36590030  0.13267328    -0.24200
H291        H  0.25968171  0.48783056  0.07963508     0.05000
H292        H  0.28706153  0.50180728  0.11505310     0.08200
H293        H  0.25354999  0.48777577  0.13792891     0.08200
H294        H  0.34456090  0.36509533  0.13554376     0.08200
H295        H  0.31369485  0.34988268  0.10834059     0.08200
H296        H  0.31084800  0.35871983  0.16453715     0.05000
C297        C  0.32933473  0.44081207  0.37640457    -0.20800
C298        C  0.30822820  0.44059545  0.34347305    -0.07400
C299        C  0.28815539  0.41799600  0.34245525     0.13500
C300        C  0.28666819  0.39895995  0.37839974    -0.20900
C301        C  0.30463547  0.40225879  0.41532752    -0.07400
C302        C  0.32873205  0.42087327  0.41135567     0.13500
C303        C  0.35440190  0.42027746  0.44218015    -0.24200
H304        H  0.34635461  0.45678466  0.37504653     0.14700
H305        H  0.27145153  0.38139996  0.37712159     0.14800
C306        C  0.26924303  0.41311261  0.30307892    -0.24200
H307        H  0.37495629  0.41710844  0.42278503     0.05000
H308        H  0.35422928  0.40206311  0.46645365     0.08200
H309        H  0.35502492  0.44154882  0.45988746     0.08200
H310        H  0.28320343  0.40989715  0.27328030     0.08200
H311        H  0.25413105  0.43227172  0.29797923     0.08200
H312        H  0.25583308  0.39339375  0.30726813     0.05000
C313        C  0.33654260  0.06116689  0.39042458    -0.20800
C314        C  0.31769843  0.06643631  0.35486822    -0.07400
C315        C  0.30078742  0.09330917  0.35475127     0.13500
C316        C  0.30137928  0.11250930  0.39134382    -0.20900
C317        C  0.31666602  0.10494014  0.43005875    -0.07400
C318        C  0.33703117  0.08038285  0.42692093     0.13500
C319        C  0.36140383  0.07498744  0.45927786    -0.24200
H320        H  0.35118213  0.04184845  0.38978923     0.14700
H321        H  0.28923920  0.13327075  0.38956641     0.14800
C322        C  0.28240670  0.10226580  0.31570715    -0.24200
H323        H  0.38252137  0.07242726  0.44114989     0.05000
H324        H  0.35777430  0.05446069  0.47825632     0.08200
H325        H  0.36386299  0.09369077  0.48200597     0.08200
H326        H  0.26487588  0.08645357  0.31099575     0.08200
H327        H  0.29635198  0.10290127  0.28564940     0.08200
H328        H  0.27169261  0.12441103  0.32011556     0.05000
C329        C  0.33521096  0.08831366  0.09761640    -0.20800
C330        C  0.31213135  0.10962539  0.09728486    -0.07400
C331        C  0.29659349  0.11536783  0.13708959     0.13500
C332        C  0.29881851  0.09462453  0.17095621    -0.20900
C333        C  0.31838637  0.07032773  0.16764878    -0.07400
C334        C  0.33838009  0.06824947  0.13208783     0.13500
C335        C  0.36189360  0.04414702  0.12861706    -0.24200
H336        H  0.35035784  0.08657114  0.07011622     0.14700
H337        H  0.28519556  0.09743128  0.20015030     0.14800
C338        C  0.27817632  0.14298977  0.14574293    -0.24200
H339        H  0.37457355  0.04557648  0.09737172     0.05000
H340        H  0.35191623  0.02224416  0.12970915     0.08200
H341        H  0.37755812  0.04599717  0.15598436     0.08200
H342        H  0.25490727  0.13741068  0.14988083     0.08200
H343        H  0.28011901  0.15980804  0.11950046     0.08200
H344        H  0.28556203  0.15332381  0.17651447     0.05000
C345        C  0.19276140  0.41193082  0.34557686    -0.20800
C346        C  0.18928184  0.44256962  0.35076107    -0.07400
C347        C  0.19031095  0.45400101  0.39353013     0.13500
C348        C  0.19314418  0.43474745  0.42989326    -0.20900
C349        C  0.19402198  0.40349480  0.42605491    -0.07400
C350        C  0.19574501  0.39236358  0.38212305     0.13500
C351        C  0.20249070  0.36049059  0.37216230    -0.24200
H352        H  0.19389564  0.40329440  0.31241427     0.14700
H353        H  0.19558502  0.44490073  0.46155721     0.14800
C354        C  0.18932376  0.48682910  0.40081092    -0.24200
H355        H  0.20129587  0.35582803  0.33641426     0.05000
H356        H  0.18679617  0.34644000  0.38896289     0.08200
H357        H  0.22505978  0.35442274  0.38250389     0.08200
H358        H  0.16871028  0.49680522  0.38755087     0.08200
H359        H  0.20816129  0.49659782  0.38370067     0.08200
H360        H  0.19045107  0.49248238  0.43622889     0.05000
C361        C  0.19068267  0.40571647  0.16869545    -0.20800
C362        C  0.17498943  0.43243171  0.16331594    -0.07400
C363        C  0.15743546  0.43739642  0.12606811     0.13500
C364        C  0.15921972  0.41691882  0.09218956    -0.20900
C365        C  0.17936478  0.39279054  0.09394248    -0.07400
C366        C  0.19194368  0.38500189  0.13507445     0.13500
C367        C  0.20705329  0.35561346  0.14475019    -0.24200
H368        H  0.20255893  0.40132101  0.19887492     0.14700
H369        H  0.14593656  0.42081162  0.06337908     0.14800
C370        C  0.13872479  0.46518177  0.12018561    -0.24200
H371        H  0.19701827  0.34579437  0.17456174     0.05000
H372        H  0.23058777  0.35868871  0.15101544     0.08200
H373        H  0.20491617  0.33946202  0.11798459     0.08200
H374        H  0.15250147  0.48475308  0.12168880     0.08200
H375        H  0.12168959  0.46660449  0.14639022     0.08200
H376        H  0.12746693  0.46573285  0.08798733     0.05000
C377        C  0.22230275  0.05433270  0.36099025    -0.20800
C378        C  0.20092275  0.05996133  0.32956000    -0.07400
C379        C  0.18337619  0.08607347  0.33136380     0.13500
C380        C  0.18595759  0.10474182  0.36727367    -0.20900
C381        C  0.20487644  0.09742984  0.40220913    -0.07400
C382        C  0.22454571  0.07230847  0.39760302     0.13500
C383        C  0.24682634  0.06223914  0.43159333    -0.24200
H384        H  0.23599856  0.03437963  0.35854494     0.14700
H385        H  0.17248013  0.12464881  0.36762368     0.14800
C386        C  0.16217616  0.09463549  0.29537852    -0.24200
H387        H  0.26175493  0.04433561  0.41887656     0.05000
H388        H  0.23585764  0.05297641  0.46076570     0.08200
H389        H  0.26105156  0.08003492  0.44135299     0.08200
H390        H  0.14410030  0.07909864  0.29443224     0.08200
H391        H  0.17384822  0.09467589  0.26319667     0.08200
H392        H  0.15210818  0.11699853  0.30051950     0.05000
C393        C  0.17432309  0.09332279  0.09604530    -0.20800
C394        C  0.19939024  0.09076052  0.06909606    -0.07400
C395        C  0.22084832  0.06856982  0.07977528     0.13500
C396        C  0.21689728  0.05033497  0.11680710    -0.20900
C397        C  0.19163102  0.05232605  0.14353539    -0.07400
C398        C  0.17004668  0.07450950  0.13276349     0.13500
C399        C  0.14233699  0.07874061  0.15942285    -0.24200
H400        H  0.15730551  0.10933346  0.08730059     0.14700
H401        H  0.23379501  0.03390760  0.12426531     0.14800
C402        C  0.24823090  0.06292237  0.05273255    -0.24200
H403        H  0.12852226  0.09747752  0.14683989     0.05000
H404        H  0.14763511  0.08340466  0.19415777     0.08200
H405        H  0.12925668  0.05872087  0.15762989     0.08200
H406        H  0.26767778  0.06517196  0.07377942     0.08200
H407        H  0.25020223  0.07832017  0.02469699     0.08200
H408        H  0.24848687  0.04015742  0.03961303     0.05000
O409        O  0.20790120  0.46319207  0.79341245    -0.75000
O410        O  0.21302649  0.01980949  0.69248541    -0.75000
O411        O  0.21834247  0.02536438  0.78003733    -0.75000
O412        O  0.20257477  0.45868585  0.70570607    -0.75100
O413        O  0.15462369  0.46902630  0.71146968    -0.75000
O414        O  0.17011150  0.03320530  0.78652892    -0.75000
O415        O  0.16506634  0.02827437  0.69855177    -0.75000
O416        O  0.16015156  0.47336654  0.79971407    -0.75000
Ni417      Ni  0.21175791  0.48971428  0.74396588     1.25400
Ni418      Ni  0.16237761  0.00168390  0.74883157     1.25400
C419        C  0.18335375  0.45924158  0.81282825     0.87200
C420        C  0.18954524  0.03316491  0.67914422     0.87200
C421        C  0.19612560  0.03973799  0.79583518     0.87200
C422        C  0.17617369  0.45376924  0.69574106     0.87400
C423        C  0.20259224  0.11457931  0.94687345     0.86000
C424        C  0.18039541  0.14044255  0.95292171    -0.54300
C425        C  0.18342917  0.15597779  0.48805439     0.08900
C426        C  0.20776962  0.14300053  0.51878568     0.19800
C427        C  0.23182827  0.12877066  0.95296667    -0.55000
C428        C  0.23606598  0.14369535  0.48989800     0.09000
C429        C  0.19750979  0.09492834  0.98749263    -0.54500
C430        C  0.20129798  0.10983552  0.52389301     0.09600
H431        H  0.16295530  0.14658273  0.93061667     0.14100
H432        H  0.20931656  0.15464909  0.55064154    -0.00200
H433        H  0.24910769  0.12628259  0.92911365     0.14400
H434        H  0.19307057  0.07334279  0.48247863     0.14200
C435        C  0.18723380  0.37877581  0.54984013     0.86000
C436        C  0.17145321  0.35102772  0.54111066    -0.54300
C437        C  0.18079151  0.33460299  0.00817220     0.08900
C438        C  0.20423453  0.35044458  0.97969306     0.19800
C439        C  0.22004660  0.37048435  0.54934642    -0.55000
C440        C  0.23018653  0.35565482  0.01175225     0.09000
C441        C  0.18311452  0.39743892  0.50742449    -0.54500
C442        C  0.19057578  0.38200859  0.96998238     0.09600
H443        H  0.15188287  0.34568258  0.55921419     0.14100
H444        H  0.21103819  0.33676837  0.95146683    -0.00200
H445        H  0.23487174  0.37857110  0.57378852     0.14400
H446        H  0.17843290  0.41917732  0.01078545     0.14200
O447        O  0.33707368  0.03319768  0.71241850    -0.75000
O448        O  0.33439763  0.47185189  0.79591187    -0.75000
O449        O  0.33291858  0.47377626  0.70679286    -0.75000
O450        O  0.33811856  0.03078692  0.80140692    -0.75100
O451        O  0.28968486  0.03674244  0.80348050    -0.75000
O452        O  0.28460537  0.48119783  0.70869582    -0.75000
O453        O  0.28580107  0.47811546  0.79785957    -0.75000
O454        O  0.28859986  0.03979096  0.71490100    -0.75000
Ni455      Ni  0.33829905  0.50216324  0.75420472     1.25400
Ni456      Ni  0.28640417  0.50941877  0.75590709     1.25400
C457        C  0.31367451  0.04663243  0.69991235     0.87200
C458        C  0.30944793  0.46494273  0.81061561     0.87200
C459        C  0.30743469  0.46827862  0.69182614     0.87200
C460        C  0.31482694  0.04351207  0.81769757     0.87400
C461        C  0.30355622  0.12582886  0.55466724     0.86000
C462        C  0.31861280  0.15469169  0.55068326    -0.54300
C463        C  0.31423420  0.16761923  0.01044083     0.08900
C464        C  0.29357649  0.15078044  0.97942656     0.19800
C465        C  0.27157720  0.13361030  0.54675372    -0.55000
C466        C  0.26567251  0.14485104  0.00848834     0.09000
C467        C  0.31257980  0.10725519  0.51345446    -0.54500
C468        C  0.30903997  0.11998920  0.97287754     0.09600
H469        H  0.33277938  0.16249472  0.57610706     0.14100
H470        H  0.28862926  0.16299513  0.94855563    -0.00200
H471        H  0.25443038  0.12593620  0.56827148     0.14400
H472        H  0.31999595  0.08325303  0.01455673     0.14200
C473        C  0.29759306  0.38662745  0.95715823     0.86000
C474        C  0.31692264  0.35901660  0.95989516    -0.54300
C475        C  0.31270224  0.34228947  0.49850182     0.08900
C476        C  0.28816588  0.35631306  0.52966009     0.19800
C477        C  0.26631478  0.37629751  0.96156239    -0.55000
C478        C  0.26104698  0.36015480  0.49914240     0.09000
C479        C  0.30171161  0.40368424  0.00029492    -0.54500
C480        C  0.29733468  0.38863301  0.53895856     0.09600
H481        H  0.33430868  0.35396021  0.93615368     0.14100
H482        H  0.28301343  0.34292127  0.55901930    -0.00200
H483        H  0.24866452  0.38563671  0.94205953     0.14400
H484        H  0.30785842  0.42625799  0.49917954     0.14200
O485        O  0.03065663  0.16207531  0.70586481    -0.75000
O486        O  0.47161045  0.16055007  0.79460653    -0.75000
O487        O  0.47118364  0.16391567  0.70530997    -0.75000
O488        O  0.03108729  0.15913493  0.79485554    -0.75100
O489        O  0.03129600  0.20811404  0.79712516    -0.75000
O490        O  0.47096394  0.21273175  0.70959855    -0.75000
O491        O  0.47230673  0.20962724  0.79802010    -0.75000
O492        O  0.03001682  0.21124995  0.70900121    -0.75000
Ni493      Ni  0.50112587  0.15947497  0.75004877     1.25400
Ni494      Ni  0.50103179  0.21199187  0.75358485     1.25400
C495        C  0.03989901  0.18693080  0.69303820     0.87200
C496        C  0.46260687  0.18506927  0.81111532     0.87200
C497        C  0.46138447  0.18936641  0.69213938     0.87200
C498        C  0.04155782  0.18288704  0.81007765     0.87400
C499        C  0.11676479  0.19322699  0.54213795     0.86000
C500        C  0.14495663  0.17397836  0.53891778    -0.54300
C501        C  0.16078593  0.17769131  0.00457858     0.08900
C502        C  0.14717745  0.20134423  0.97250924     0.19800
C503        C  0.12750241  0.22438180  0.53789766    -0.55000
C504        C  0.14213003  0.22931196  0.00220580     0.09000
C505        C  0.10054786  0.18643891  0.49960397    -0.54500
C506        C  0.11641619  0.18959397  0.96261413     0.09600
H507        H  0.15146727  0.15690701  0.56190757     0.14100
H508        H  0.16061710  0.20517132  0.94256251    -0.00200
H509        H  0.12171011  0.24133821  0.56175737     0.14400
H510        H  0.07918208  0.17663981  0.00008367     0.14200
C511        C  0.38188841  0.19811497  0.95694806     0.86000
C512        C  0.35284683  0.18223561  0.95896940    -0.54300
C513        C  0.33785373  0.18918205  0.49817879     0.08900
C514        C  0.35303569  0.21045314  0.53054660     0.19800
C515        C  0.37245593  0.23048869  0.96108285    -0.55000
C516        C  0.35953426  0.23769054  0.50133244     0.09000
C517        C  0.39699866  0.18894976  0.99981743    -0.54500
C518        C  0.38335082  0.19487701  0.54010820     0.09600
H519        H  0.34655709  0.16537916  0.93634909     0.14100
H520        H  0.34018196  0.21603041  0.56072730    -0.00200
H521        H  0.38008958  0.24688468  0.93878909     0.14400
H522        H  0.41930750  0.17575483  0.50389972     0.14200
O523        O  0.46718679  0.29096496  0.79203897    -0.75000
O524        O  0.02495978  0.28571067  0.69947726    -0.75000
O525        O  0.02563500  0.28236837  0.78847026    -0.75000
O526        O  0.46656797  0.29567431  0.70340514    -0.75100
O527        O  0.47166077  0.34413486  0.70772173    -0.75000
O528        O  0.03162108  0.33090976  0.79091681    -0.75000
O529        O  0.03063027  0.33417029  0.70201605    -0.75000
O530        O  0.47305735  0.33919628  0.79714078    -0.75000
Ni531      Ni  0.49606573  0.28692136  0.74539452     1.25400
Ni532      Ni  0.50209377  0.33879212  0.74935320     1.25400
C533        C  0.46054262  0.31571338  0.81044305     0.87200
C534        C  0.03735199  0.30879975  0.68516127     0.87200
C535        C  0.03821750  0.30473668  0.80367806     0.87200
C536        C  0.45940427  0.32199337  0.69153531     0.87400
C537        C  0.11964394  0.30005131  0.94734025     0.86000
C538        C  0.14637872  0.31837722  0.95375326    -0.54300
C539        C  0.16157877  0.31298119  0.48822653     0.08900
C540        C  0.14773356  0.28822167  0.51795780     0.19800
C541        C  0.13127665  0.26831696  0.95051487    -0.55000
C542        C  0.14469544  0.26142288  0.48639260     0.09000
C543        C  0.10153668  0.30602984  0.98982895    -0.54500
C544        C  0.11547558  0.29937061  0.52799355     0.09600
H545        H  0.15143139  0.33764839  0.93490763     0.14100
H546        H  0.16124397  0.28231764  0.54673900    -0.00200
H547        H  0.12522772  0.25212884  0.92697485     0.14400
H548        H  0.08046162  0.31783770  0.48818109     0.14200
C549        C  0.38076178  0.30907349  0.54974177     0.86000
C550        C  0.35344998  0.32811110  0.54492391    -0.54300
C551        C  0.33666549  0.32142983  0.00851785     0.08900
C552        C  0.35000738  0.29628531  0.97851477     0.19800
C553        C  0.37097589  0.27729284  0.55007333    -0.55000
C554        C  0.35421599  0.26926979  0.01069317     0.09000
C555        C  0.39719715  0.31179297  0.50509059    -0.54500
C556        C  0.38190316  0.30562391  0.96619101     0.09600
H557        H  0.35007231  0.34828384  0.56312581     0.14100
H558        H  0.33494176  0.29245972  0.95143381    -0.00200
H559        H  0.37769904  0.26156697  0.57504986     0.14400
H560        H  0.42034938  0.31423839  0.00356667     0.14200
C561        C  0.41473654  0.29715916  0.84614073    -0.20800
C562        C  0.43801624  0.31643535  0.84746469    -0.07400
C563        C  0.43940956  0.33496238  0.88450165     0.13500
C564        C  0.41928328  0.33201518  0.91987314    -0.20900
C565        C  0.39718152  0.31080205  0.92095239    -0.07400
C566        C  0.39372397  0.29492547  0.88062956     0.13500
C567        C  0.36847552  0.27613576  0.86949710    -0.24200
H568        H  0.41249389  0.28383670  0.81694903     0.14700
H569        H  0.42132065  0.34654150  0.94767961     0.14800
C570        C  0.46286281  0.35718548  0.88804864    -0.24200
H571        H  0.35756169  0.28522340  0.83963062     0.05000
H572        H  0.35163185  0.27495938  0.89485644     0.08200
H573        H  0.37665265  0.25333048  0.86212467     0.08200
H574        H  0.46037779  0.37384803  0.86136771     0.08200
H575        H  0.48475446  0.34590969  0.88554397     0.08200
H576        H  0.46161594  0.36906887  0.91987226     0.05000
C577        C  0.41096459  0.31032080  0.66626346    -0.20800
C578        C  0.43627453  0.32604610  0.65915618    -0.07400
C579        C  0.43949024  0.34241285  0.61983109     0.13500
C580        C  0.41994996  0.33797348  0.58578278    -0.20900
C581        C  0.39744953  0.31786805  0.59021624    -0.07400
C582        C  0.39045336  0.30763653  0.63314557     0.13500
C583        C  0.36178871  0.29447691  0.64599651    -0.24200
H584        H  0.40726717  0.29987772  0.69794019     0.14700
H585        H  0.42284933  0.35004131  0.55534715     0.14800
C586        C  0.46331093  0.36385431  0.61126790    -0.24200
H587        H  0.35234088  0.30648601  0.67484333     0.05000
H588        H  0.36547765  0.27094694  0.65520779     0.08200
H589        H  0.34512818  0.29638220  0.61996793     0.08200
H590        H  0.47925908  0.36515680  0.63805400     0.08200
H591        H  0.45324145  0.38622220  0.60619341     0.08200
H592        H  0.47555430  0.35753869  0.58083680     0.05000
C593        C  0.08592876  0.31630083  0.83259597    -0.20800
C594        C  0.06018495  0.30099981  0.83745007    -0.07400
C595        C  0.05452099  0.28527351  0.87616871     0.13500
C596        C  0.07460585  0.28606828  0.90995108    -0.20900
C597        C  0.10012440  0.30271276  0.90697964    -0.07400
C598        C  0.10636540  0.31713895  0.86642188     0.13500
C599        C  0.13416958  0.33251288  0.85639294    -0.24200
H600        H  0.08985996  0.32796788  0.80197649     0.14700
H601        H  0.07022465  0.27343799  0.93952760     0.14800
C602        C  0.02682423  0.26872121  0.88295659    -0.24200
H603        H  0.13615006  0.33836556  0.82097468     0.05000
H604        H  0.15322967  0.31765132  0.86401982     0.03000
H605        H  0.13438769  0.35364877  0.87438964     0.08200
H606        H  0.02587823  0.25067209  0.85869139     0.08200
H607        H  0.00747483  0.28396965  0.87909211     0.08200
H608        H  0.02561291  0.25865007  0.91628539     0.05000
C609        C  0.08860697  0.30577047  0.65162738    -0.20800
C610        C  0.05807614  0.30595383  0.64646433    -0.07400
C611        C  0.04733377  0.30083405  0.60417197     0.13500
C612        C  0.06661745  0.29851009  0.56795636    -0.20900
C613        C  0.09744565  0.29987446  0.57146579    -0.07400
C614        C  0.10839421  0.30141162  0.61536246     0.13500
C615        C  0.14021806  0.29636308  0.62587233    -0.24200
H616        H  0.09702818  0.30776996  0.68461268     0.14700
H617        H  0.05692735  0.29417456  0.53654633     0.14800
C618        C  0.01515847  0.29734932  0.59712882    -0.24200
H619        H  0.14433027  0.29839864  0.66164775     0.05000
H620        H  0.15383112  0.31248583  0.60915320     0.08200
H621        H  0.14735082  0.27365959  0.61641442     0.08200
H622        H  0.00285259  0.31704887  0.60941985     0.08200
H623        H  0.00792244  0.27776653  0.61552905     0.08200
H624        H  0.00982587  0.29442236  0.56190948     0.05000
C625        C  0.42225389  0.16756270  0.64546566    -0.20800
C626        C  0.43928144  0.19182964  0.65549918    -0.07400
C627        C  0.43630191  0.21717223  0.62796208     0.13500
C628        C  0.41734225  0.21730800  0.59187930    -0.20900
C629        C  0.39958076  0.19369809  0.58284504    -0.07400
C630        C  0.40315863  0.16789163  0.60909029     0.13500
C631        C  0.38887600  0.13963198  0.59807531    -0.24200
H632        H  0.42459447  0.14766634  0.66518121     0.14700
H633        H  0.41782091  0.23546993  0.56875665     0.14800
C634        C  0.45355115  0.24414907  0.63514961    -0.24200
H635        H  0.40574619  0.12149197  0.59563293     0.05000
H636        H  0.37759388  0.14069537  0.56607981     0.08200
H637        H  0.37303548  0.13419327  0.62450952     0.08200
H638        H  0.47727201  0.23825004  0.63451121     0.08200
H639        H  0.44691316  0.25362109  0.66727286     0.08200
H640        H  0.44927640  0.26141111  0.60971590     0.05000
C641        C  0.44894314  0.20422030  0.88233005    -0.20800
C642        C  0.44214418  0.18579863  0.84784321    -0.07400
C643        C  0.41595921  0.17066530  0.84827959     0.13500
C644        C  0.39660614  0.17485633  0.88375792    -0.20900
C645        C  0.40304603  0.19374385  0.91873302    -0.07400
C646        C  0.43008544  0.20870650  0.91779718     0.13500
C647        C  0.44022329  0.22969256  0.95303222    -0.24200
H648        H  0.46944152  0.21546734  0.88119653     0.14700
H649        H  0.37647737  0.16338736  0.88316384     0.14800
C650        C  0.40789981  0.15105800  0.81080640    -0.24200
H651        H  0.46199998  0.23838038  0.94495492     0.05000
H652        H  0.44288710  0.21870005  0.98530682     0.08200
H653        H  0.43032408  0.24357436  0.46692802     0.08200
H654        H  0.42403580  0.13230617  0.80796694     0.08200
H655        H  0.40757342  0.16385241  0.77955545     0.08200
H656        H  0.38598624  0.14182389  0.81581710     0.05000
C657        C  0.06431722  0.15968231  0.87709785    -0.20800
C658        C  0.06523652  0.18133431  0.84403531    -0.07400
C659        C  0.08852412  0.20116158  0.84499994     0.13500
C660        C  0.10706095  0.20159958  0.88194437    -0.20900
C661        C  0.10331399  0.18268796  0.91818859    -0.07400
C662        C  0.08371188  0.15934933  0.91285613     0.13500
C663        C  0.08359343  0.13285636  0.94298968    -0.24200
H664        H  0.04814159  0.14291460  0.87535312     0.14700
H665        H  0.12448140  0.21687974  0.88198666     0.14800
C666        C  0.09524459  0.22149825  0.80715638    -0.24200
H667        H  0.08632917  0.11248480  0.92311814     0.05000
H668        H  0.06016060  0.13451037  0.46054269     0.08200
H669        H  0.10186227  0.13240907  0.96665774     0.08200
H670        H  0.08169148  0.21793244  0.77786985     0.08200
H671        H  0.11835288  0.21761975  0.79661030     0.08200
H672        H  0.09214523  0.24473332  0.81778876     0.05000
C673        C  0.05280955  0.20661914  0.62213782    -0.20800
C674        C  0.06069561  0.18815527  0.65701437    -0.07400
C675        C  0.08697288  0.17119181  0.65571882     0.13500
C676        C  0.10461773  0.17252268  0.61805525    -0.20900
C677        C  0.09665650  0.19067727  0.58190590    -0.07400
C678        C  0.06989777  0.20795832  0.58427694     0.13500
C679        C  0.05778884  0.22725777  0.54723755    -0.24200
H680        H  0.03228544  0.21932763  0.62395321     0.14700
H681        H  0.12487222  0.15971334  0.61839706     0.14800
C682        C  0.09762467  0.15258998  0.69405852    -0.24200
H683        H  0.03886455  0.24135769  0.55840578     0.05000
H684        H  0.04888840  0.21239247  0.01830495     0.08200
H685        H  0.07410673  0.24225157  0.53384827     0.08200
H686        H  0.08374104  0.15529520  0.72392143     0.08200
H687        H  0.11996268  0.15892816  0.70305191     0.08200
H688        H  0.09827595  0.12902296  0.68474312     0.05000
C689        C  0.28514943  0.43520326  0.58116639    -0.20800
C690        C  0.29703557  0.40597803  0.58250435    -0.07400
C691        C  0.31055113  0.39696328  0.62298656     0.13500
C692        C  0.31472337  0.41785170  0.65690344    -0.20900
C693        C  0.30386271  0.44715448  0.65405029    -0.07400
C694        C  0.28815074  0.45545419  0.61584057     0.13500
C695        C  0.27500419  0.48613915  0.61086529    -0.24200
H696        H  0.27342319  0.44258703  0.55211156     0.14700
H697        H  0.32570344  0.41079543  0.68681065     0.14800
C698        C  0.32029681  0.36583728  0.63363554    -0.24200
H699        H  0.26450783  0.48958689  0.57838033     0.05000
H700        H  0.29219106  0.50257381  0.61418968     0.08200
H701        H  0.25798074  0.48987680  0.63659751     0.08200
H702        H  0.34441164  0.36439482  0.63728505     0.08200
H703        H  0.31361535  0.34987496  0.60925745     0.08200
H704        H  0.31013061  0.35906747  0.66526399     0.05000
C705        C  0.32919062  0.44246608  0.87759339    -0.20800
C706        C  0.30846626  0.44219044  0.84415710    -0.07400
C707        C  0.28845893  0.41961518  0.84254523     0.13500
C708        C  0.28635306  0.40078798  0.87861875    -0.20900
C709        C  0.30409459  0.40392089  0.91578490    -0.07400
C710        C  0.32833112  0.42239540  0.91229996     0.13500
C711        C  0.35398266  0.42139769  0.94317632    -0.24200
H712        H  0.34626853  0.45838503  0.87657670     0.14700
H713        H  0.27101740  0.38340690  0.87720136     0.14800
C714        C  0.27056001  0.41443489  0.80220116    -0.24200
H715        H  0.37452341  0.41815648  0.92376001     0.05000
H716        H  0.35367996  0.40307569  0.96724338     0.08200
H717        H  0.35478127  0.44255252  0.96114301     0.08200
H718        H  0.28522099  0.41173916  0.77306054     0.08200
H719        H  0.25505325  0.43326762  0.79653731     0.08200
H720        H  0.25788079  0.39417710  0.80544014     0.05000
C721        C  0.33639241  0.06135356  0.88844898    -0.20800
C722        C  0.31660466  0.06605617  0.85387907    -0.07400
C723        C  0.29914407  0.09257933  0.85441304     0.13500
C724        C  0.29972454  0.11160720  0.89115726    -0.20900
C725        C  0.31594180  0.10438392  0.92910762    -0.07400
C726        C  0.33708235  0.08060257  0.92488843     0.13500
C727        C  0.36235251  0.07620785  0.95593817    -0.24200
H728        H  0.35159598  0.04249284  0.88707917     0.14700
H729        H  0.28700728  0.13204610  0.88998355     0.14800
C730        C  0.28041219  0.10151604  0.81572251    -0.24200
H731        H  0.38311160  0.07470869  0.93671988     0.05000
H732        H  0.36008766  0.05543552  0.97489420     0.08200
H733        H  0.36445192  0.09493632  0.97874117     0.08200
H734        H  0.26321232  0.08542221  0.81070224     0.08200
H735        H  0.29421237  0.10273104  0.78557117     0.08200
H736        H  0.26927146  0.12340582  0.82068438     0.05000
C737        C  0.33357928  0.08929929  0.59860677    -0.20800
C738        C  0.31040308  0.11047287  0.59790644    -0.07400
C739        C  0.29388516  0.11539416  0.63704729     0.13500
C740        C  0.29563088  0.09417115  0.67034022    -0.20900
C741        C  0.31550954  0.07008613  0.66720646    -0.07400
C742        C  0.33606372  0.06858249  0.63228950     0.13500
C743        C  0.35947212  0.04439141  0.62845285    -0.24200
H744        H  0.34920537  0.08802642  0.57166036     0.14700
H745        H  0.28150093  0.09653320  0.69906630     0.14800
C746        C  0.27518220  0.14280464  0.64581169    -0.24200
H747        H  0.37242403  0.04619823  0.59751280     0.05000
H748        H  0.34933966  0.02255795  0.62853349     0.08200
H749        H  0.37494386  0.04570361  0.65615932     0.08200
H750        H  0.25184194  0.13713396  0.64820015     0.08200
H751        H  0.27789290  0.16012908  0.62048880     0.08200
H752        H  0.28167361  0.15253775  0.67751147     0.05000
C753        C  0.19697146  0.41045394  0.84813455    -0.20800
C754        C  0.18215212  0.43804758  0.85094683    -0.07400
C755        C  0.16667287  0.44475751  0.89010431     0.13500
C756        C  0.16820936  0.42493174  0.92593233    -0.20900
C757        C  0.18594421  0.39851494  0.92575021    -0.07400
C758        C  0.19837263  0.39025340  0.88399871     0.13500
C759        C  0.21129228  0.35994461  0.87455676    -0.24200
H760        H  0.20699410  0.40437427  0.81692352     0.14700
H761        H  0.15488595  0.43061704  0.95431147     0.14800
C762        C  0.14921893  0.47340022  0.89513066    -0.24200
H763        H  0.21731734  0.35726696  0.83928397     0.05000
H764        H  0.19497272  0.34326306  0.88220514     0.08200
H765        H  0.23144415  0.35525961  0.89319258     0.08200
H766        H  0.13093523  0.47433550  0.87144968     0.08200
H767        H  0.16353909  0.49223954  0.88909165     0.08200
H768        H  0.13963331  0.47588432  0.92867336     0.05000
C769        C  0.18562085  0.40372013  0.66880117    -0.20800
C770        C  0.17099741  0.43105432  0.66379072    -0.07400
C771        C  0.15484768  0.43747896  0.62560374     0.13500
C772        C  0.15706556  0.41778627  0.59074022    -0.20900
C773        C  0.17666310  0.39318339  0.59231380    -0.07400
C774        C  0.18762065  0.38395232  0.63392249     0.13500
C775        C  0.20192053  0.35406715  0.64288710    -0.24200
H776        H  0.19640595  0.39824038  0.69955323     0.14700
H777        H  0.14431828  0.42259812  0.56172652     0.14800
C778        C  0.13729234  0.46602027  0.61993744    -0.24200
H779        H  0.19036779  0.34343207  0.67071001     0.05000
H780        H  0.22510509  0.35657714  0.65200618     0.08200
H781        H  0.20106342  0.33885827  0.61471583     0.08200
H782        H  0.15169372  0.48498934  0.62341465     0.08200
H783        H  0.11955299  0.46750269  0.64505857     0.08200
H784        H  0.12703684  0.46771488  0.58702800     0.05000
C785        C  0.22159932  0.05590740  0.86011601    -0.20800
C786        C  0.20041955  0.06224871  0.82864727    -0.07400
C787        C  0.18184766  0.08750609  0.83260770     0.13500
C788        C  0.18371874  0.10482768  0.87012432    -0.20900
C789        C  0.20284290  0.09685303  0.90461845    -0.07400
C790        C  0.22288317  0.07221071  0.89851822     0.13500
C791        C  0.24487036  0.06110237  0.93233460    -0.24200
H792        H  0.23597417  0.03656119  0.85608412     0.14700
H793        H  0.16957752  0.12421618  0.87186292     0.14800
C794        C  0.16027620  0.09655409  0.79731247    -0.24200
H795        H  0.25957011  0.04319313  0.91907649     0.05000
H796        H  0.23363007  0.05145413  0.96098187     0.08200
H797        H  0.25938261  0.07843925  0.94302894     0.08200
H798        H  0.14284713  0.08035563  0.79510115     0.08200
H799        H  0.17178007  0.09820454  0.76511035     0.08200
H800        H  0.14936318  0.11830837  0.80428942     0.05000
C801        C  0.17386678  0.09416362  0.59172279    -0.20800
C802        C  0.19958409  0.09242454  0.56607758    -0.07400
C803        C  0.22140579  0.07083956  0.57769488     0.13500
C804        C  0.21739541  0.05275929  0.61478380    -0.20900
C805        C  0.19164058  0.05413269  0.64049350    -0.07400
C806        C  0.16950179  0.07537749  0.62844091     0.13500
C807        C  0.14113375  0.07855960  0.65368330    -0.24200
H808        H  0.15646342  0.10943918  0.58191490     0.14700
H809        H  0.23468844  0.03687388  0.62303322     0.14800
C810        C  0.24917136  0.06546241  0.55147676    -0.24200
H811        H  0.12671431  0.09638864  0.63980280     0.05000
H812        H  0.14545120  0.08398464  0.68852248     0.08200
H813        H  0.12916000  0.05781860  0.65191433     0.08200
H814        H  0.26828556  0.06820819  0.57299055     0.08200
H815        H  0.25117932  0.08061074  0.52316117     0.08200
H816        H  0.25001696  0.04255267  0.53888061     0.05000
O817        O  0.20852438  0.96271644  0.29335676    -0.75000
O818        O  0.21336459  0.52017551  0.19182096    -0.75000
O819        O  0.21905945  0.52594241  0.27931110    -0.75000
O820        O  0.20295229  0.95846202  0.20568435    -0.75100
O821        O  0.15495166  0.96842857  0.21167875    -0.75000
O822        O  0.17086833  0.53396859  0.28615060    -0.75000
O823        O  0.16544597  0.52880775  0.19822170    -0.75000
O824        O  0.16072962  0.97253692  0.29991756    -0.75000
Ni825      Ni  0.21202534  0.98944448  0.24404877     1.25400
Ni826      Ni  0.16287371  0.50236885  0.24866065     1.25400
C827        C  0.18405592  0.95853011  0.31287201     0.87200
C828        C  0.18986754  0.53353735  0.17856181     0.87200
C829        C  0.19694950  0.54040401  0.29526743     0.87200
C830        C  0.17657122  0.95331117  0.19589140     0.87400
C831        C  0.20353417  0.61480680  0.44682028     0.86000
C832        C  0.18133439  0.64065974  0.45275101    -0.54300
C833        C  0.18357682  0.65609205  0.98788002     0.08900
C834        C  0.20800529  0.64316357  0.01839579     0.19800
C835        C  0.23279363  0.62893033  0.45311001    -0.55000
C836        C  0.23625141  0.64412250  0.98943204     0.09000
C837        C  0.19831503  0.59519344  0.48742555    -0.54500
C838        C  0.20169384  0.60996778  0.02320530     0.09600
H839        H  0.16380198  0.64661348  0.43050612     0.14100
H840        H  0.20950666  0.65471766  0.05033804    -0.00200
H841        H  0.25012822  0.62634174  0.42940269     0.14400
H842        H  0.19366368  0.57356573  0.98151227     0.14200
C843        C  0.18827220  0.87814693  0.05063729     0.86000
C844        C  0.17251146  0.85045222  0.04171363    -0.54300
C845        C  0.18206172  0.83387169  0.50863571     0.08900
C846        C  0.20545957  0.84984637  0.48014953     0.19800
C847        C  0.22108329  0.86997019  0.04989869    -0.55000
C848        C  0.23129880  0.85539533  0.51230198     0.09000
C849        C  0.18400173  0.89699870  0.00844981    -0.54500
C850        C  0.19160461  0.88127675  0.47016310     0.09600
H851        H  0.15280364  0.84522623  0.05954654     0.14100
H852        H  0.21243194  0.83615552  0.45200844    -0.00200
H853        H  0.23595252  0.87812602  0.07422108     0.14400
H854        H  0.17931065  0.91850014  0.51060868     0.14200
O855        O  0.33661314  0.53292915  0.21230293    -0.75000
O856        O  0.33560190  0.97214888  0.29642956    -0.75000
O857        O  0.33396873  0.97428815  0.20728104    -0.75000
O858        O  0.33800684  0.53033884  0.30130784    -0.75100
O859        O  0.28959071  0.53637821  0.30375709    -0.75000
O860        O  0.28559014  0.98104693  0.20949766    -0.75000
O861        O  0.28696597  0.97787639  0.29857424    -0.75000
O862        O  0.28815662  0.53961454  0.21512673    -0.75000
Ni863      Ni  0.33903060  0.00265357  0.25484386     1.25400
Ni864      Ni  0.28707858  0.00924294  0.25673428     1.25400
C865        C  0.31319266  0.54636666  0.19987350     0.87200
C866        C  0.31075823  0.96491948  0.31117812     0.87200
C867        C  0.30853025  0.96845510  0.19246006     0.87200
C868        C  0.31479674  0.54311570  0.31778316     0.87400
C869        C  0.30359984  0.62551155  0.05407917     0.86000
C870        C  0.31891813  0.65424642  0.05018714    -0.54300
C871        C  0.31555993  0.66753586  0.51032165     0.08900
C872        C  0.29453792  0.65101259  0.47935849     0.19800
C873        C  0.27168515  0.63362421  0.04625082    -0.55000
C874        C  0.26660094  0.64538478  0.50860900     0.09000
C875        C  0.31242600  0.60696387  0.01273085    -0.54500
C876        C  0.30960006  0.62004040  0.47259858     0.09600
H877        H  0.33307668  0.66195372  0.07568016     0.14100
H878        H  0.28966577  0.66330082  0.44851922    -0.00200
H879        H  0.25449322  0.62608807  0.06780681     0.14400
H880        H  0.32016718  0.58312348  0.51403428     0.14200
C881        C  0.29872522  0.88670516  0.45776844     0.86000
C882        C  0.31789716  0.85898532  0.46027679    -0.54300
C883        C  0.31378394  0.84280941  0.99873926     0.08900
C884        C  0.28916868  0.85650790  0.03003968     0.19800
C885        C  0.26736916  0.87653286  0.46227621    -0.55000
C886        C  0.26200424  0.86019073  0.99953328     0.09000
C887        C  0.30301188  0.90363488  0.50094661    -0.54500
C888        C  0.29808088  0.88889908  0.03959755     0.09600
H889        H  0.33523886  0.85390806  0.43646869     0.14100
H890        H  0.28419891  0.84297911  0.05933992    -0.00200
H891        H  0.24972529  0.88589908  0.44278090     0.14400
H892        H  0.30813186  0.92679310  0.00015058     0.14200
O893        O  0.03062195  0.66191364  0.20510983    -0.75000
O894        O  0.47223220  0.66021823  0.29417117    -0.75000
O895        O  0.47142804  0.66364224  0.20492554    -0.75000
O896        O  0.03150203  0.65900238  0.29417196    -0.75100
O897        O  0.03172452  0.70797862  0.29640468    -0.75000
O898        O  0.47123388  0.71245924  0.20920961    -0.75000
O899        O  0.47281298  0.70931718  0.29750575    -0.75000
O900        O  0.03003641  0.71109877  0.20817052    -0.75000
Ni901      Ni  0.50154788  0.65922201  0.24939513     1.25400
Ni902      Ni  0.50139432  0.71174877  0.25300000     1.25400
C903        C  0.03976389  0.68676610  0.19209614     0.87200
C904        C  0.46325712  0.68473352  0.31069887     0.87200
C905        C  0.46159330  0.68909761  0.19183641     0.87200
C906        C  0.04197951  0.68275023  0.30940279     0.87400
C907        C  0.11679222  0.69331241  0.04156682     0.86000
C908        C  0.14499758  0.67402814  0.03862385    -0.54300
C909        C  0.16118662  0.67755098  0.50436010     0.08900
C910        C  0.14740422  0.70108932  0.47228685     0.19800
C911        C  0.12750736  0.72447106  0.03750289    -0.55000
C912        C  0.14225156  0.72900157  0.50201560     0.09000
C913        C  0.10084094  0.68655151  0.99883757    -0.54500
C914        C  0.11668994  0.68917219  0.46238373     0.09600
H915        H  0.15126378  0.65678265  0.06146119     0.14100
H916        H  0.16079919  0.70500960  0.44232562    -0.00200
H917        H  0.12152624  0.74141875  0.06127402     0.14400
H918        H  0.07946311  0.67612561  0.49984318     0.14200
C919        C  0.38312541  0.69815570  0.45685495     0.86000
C920        C  0.35410152  0.68225730  0.45895253    -0.54300
C921        C  0.33811807  0.68899377  0.99789100     0.08900
C922        C  0.35308505  0.71037405  0.03033423     0.19800
C923        C  0.37373109  0.73053037  0.46120296    -0.55000
C924        C  0.35955017  0.73765143  0.00107664     0.09000
C925        C  0.39836327  0.68891901  0.49959194    -0.54500
C926        C  0.38341634  0.69488617  0.04012262     0.09600
H927        H  0.34777001  0.66538311  0.43639433     0.14100
H928        H  0.34011036  0.71590245  0.06041937    -0.00200
H929        H  0.38129608  0.74697019  0.43892544     0.14400
H930        H  0.41959658  0.67598672  0.00419237     0.14200
O931        O  0.46772991  0.79115736  0.29207517    -0.75000
O932        O  0.02638305  0.78581136  0.20020222    -0.75000
O933        O  0.02647937  0.78308548  0.28919424    -0.75000
O934        O  0.46786495  0.79527423  0.20336308    -0.75100
O935        O  0.47253865  0.84383120  0.20716587    -0.75000
O936        O  0.03207097  0.83169883  0.29107614    -0.75000
O937        O  0.03159337  0.83436089  0.20204910    -0.75000
O938        O  0.47324358  0.83947777  0.29666914    -0.75000
Ni939      Ni  0.49700515  0.78703707  0.24604872     1.25400
Ni940      Ni  0.50262622  0.83900382  0.24939992     1.25400
C941        C  0.46084553  0.81596479  0.31011011     0.87200
C942        C  0.03857534  0.80892793  0.18560291     0.87200
C943        C  0.03877973  0.80565030  0.30428770     0.87200
C944        C  0.46061081  0.82147851  0.19105041     0.87400
C945        C  0.12068286  0.80014161  0.44742471     0.86000
C946        C  0.14773775  0.81797722  0.45395074    -0.54300
C947        C  0.16225768  0.81288459  0.98844043     0.08900
C948        C  0.14844888  0.78806695  0.01800436     0.19800
C949        C  0.13188484  0.76825152  0.45052789    -0.55000
C950        C  0.14541570  0.76137511  0.98631956     0.09000
C951        C  0.10259322  0.80633225  0.48983625    -0.54500
C952        C  0.11621957  0.79915265  0.02812625     0.09600
H953        H  0.15333478  0.83701008  0.43500337     0.14100
H954        H  0.16195723  0.78209029  0.04676323    -0.00200
H955        H  0.12572657  0.75219892  0.42685278     0.14400
H956        H  0.08097671  0.81733919  0.98847003     0.14200
C957        C  0.38157604  0.80863066  0.04954518     0.86000
C958        C  0.35453335  0.82807623  0.04481794    -0.54300
C959        C  0.33760128  0.82134235  0.50869675     0.08900
C960        C  0.35091060  0.79617967  0.47870400     0.19800
C961        C  0.37128015  0.77704034  0.04984623    -0.55000
C962        C  0.35527406  0.76921728  0.51093360     0.09000
C963        C  0.39804997  0.81111847  0.00491822    -0.54500
C964        C  0.38273422  0.80557462  0.46617219     0.09600
H965        H  0.35135901  0.84817789  0.06325407     0.14100
H966        H  0.33578263  0.79228970  0.45172232    -0.00200
H967        H  0.37776773  0.76119427  0.07477279     0.14400
H968        H  0.42126900  0.81433526  0.50330419     0.14200
C969        C  0.41502889  0.79741867  0.34576141    -0.20800
C970        C  0.43830064  0.81670256  0.34704472    -0.07400
C971        C  0.43985173  0.83510565  0.38417561     0.13500
C972        C  0.41982486  0.83210739  0.41962796    -0.20900
C973        C  0.39779434  0.81083199  0.42081570    -0.07400
C974        C  0.39420179  0.79500612  0.38046981     0.13500
C975        C  0.36905524  0.77600249  0.36960886    -0.24200
H976        H  0.41271913  0.78415332  0.31652570     0.14700
H977        H  0.42193577  0.84659905  0.44745604     0.14800
C978        C  0.46344064  0.85717982  0.38779025    -0.24200
H979        H  0.35788920  0.78503515  0.33991724     0.05000
H980        H  0.35238020  0.77461145  0.39519258     0.08200
H981        H  0.37739137  0.75327430  0.36207049     0.08200
H982        H  0.46098629  0.87395741  0.36126612     0.08200
H983        H  0.48526945  0.84579140  0.38507883     0.08200
H984        H  0.46234291  0.86893450  0.41972540     0.05000
C985        C  0.41234806  0.80946835  0.16571921    -0.20800
C986        C  0.43763163  0.82518871  0.15843974    -0.07400
C987        C  0.44081054  0.84150668  0.11907255     0.13500
C988        C  0.42106734  0.83722353  0.08525983    -0.20900
C989        C  0.39850509  0.81719185  0.08987584    -0.07400
C990        C  0.39170354  0.80685521  0.13280652     0.13500
C991        C  0.36305616  0.79378461  0.14594958    -0.24200
H992        H  0.40872431  0.79905464  0.19743977     0.14700
H993        H  0.42387362  0.84932297  0.05482554     0.14800
C994        C  0.46482436  0.86268487  0.11020157    -0.24200
H995        H  0.35388934  0.80565150  0.17511423     0.05000
H996        H  0.36668014  0.77017914  0.15477696     0.08200
H997        H  0.34620553  0.79600448  0.12023045     0.08200
H998        H  0.48088275  0.86386957  0.13686679     0.08200
H999        H  0.45497272  0.88513758  0.10506242     0.08200
H1000       H  0.47692254  0.85614073  0.07973817     0.05000
C1001       C  0.08613299  0.81801496  0.33369610    -0.20800
C1002       C  0.06067635  0.80220665  0.33821526    -0.07400
C1003       C  0.05539030  0.78584321  0.37647025     0.13500
C1004       C  0.07566276  0.78632524  0.41000104    -0.20900
C1005       C  0.10106947  0.80315490  0.40720910    -0.07400
C1006       C  0.10676885  0.81854217  0.36727244     0.13500
C1007       C  0.13412792  0.83476457  0.35765223    -0.24200
H1008       H  0.08972980  0.83024027  0.30347088     0.14700
H1009       H  0.07153512  0.77328285  0.43926903     0.14800
C1010       C  0.02793631  0.76885859  0.38305678    -0.24200
H1011       H  0.13553248  0.84186640  0.32268084     0.05000
H1012       H  0.15352497  0.81999440  0.36360754     0.03000
H1013       H  0.13421243  0.85526230  0.37724592     0.08200
H1014       H  0.02711593  0.75105311  0.35836809     0.08200
H1015       H  0.00839168  0.78391247  0.37974563     0.08200
H1016       H  0.02698523  0.75838632  0.41613331     0.05000
C1017       C  0.08975537  0.80616589  0.15182145    -0.20800
C1018       C  0.05922768  0.80598939  0.14687004    -0.07400
C1019       C  0.04841949  0.80021105  0.10481792     0.13500
C1020       C  0.06758937  0.79785574  0.06848205    -0.20900
C1021       C  0.09837787  0.79963315  0.07173627    -0.07400
C1022       C  0.10945883  0.80153075  0.11553168     0.13500
C1023       C  0.14127843  0.79631854  0.12603276    -0.24200
H1024       H  0.09824505  0.80853559  0.18470081     0.14700
H1025       H  0.05787838  0.79323769  0.03718342     0.14800
C1026       C  0.01630637  0.79603595  0.09818099    -0.24200
H1027       H  0.14541657  0.79842264  0.16179212     0.05000
H1028       H  0.15505913  0.81225403  0.10926966     0.08200
H1029       H  0.14825014  0.77354065  0.11671682     0.08200
H1030       H  0.00367365  0.81561741  0.11015587     0.08200
H1031       H  0.00951729  0.77647294  0.11706620     0.08200
H1032       H  0.01089672  0.79266793  0.06309068     0.05000
C1033       C  0.42228627  0.66738325  0.14539057    -0.20800
C1034       C  0.43939120  0.69160679  0.15536715    -0.07400
C1035       C  0.43644105  0.71696306  0.12786539     0.13500
C1036       C  0.41737682  0.71718768  0.09193559    -0.20900
C1037       C  0.39953133  0.69364181  0.08294067    -0.07400
C1038       C  0.40315063  0.66776799  0.10905682     0.13500
C1039       C  0.38899590  0.63946534  0.09781973    -0.24200
H1040       H  0.42465837  0.64745718  0.16503394     0.14700
H1041       H  0.41793247  0.73532316  0.06877711     0.14800
C1042       C  0.45394011  0.74381279  0.13477836    -0.24200
H1043       H  0.40593158  0.62137983  0.09547948     0.05000
H1044       H  0.37788533  0.64052522  0.06568812     0.08200
H1045       H  0.37305258  0.63391761  0.12406009     0.08200
H1046       H  0.47761207  0.73771271  0.13388688     0.08200
H1047       H  0.44755705  0.75340743  0.16693086     0.08200
H1048       H  0.44969655  0.76106354  0.10931856     0.05000
C1049       C  0.45009518  0.70372367  0.38207595    -0.20800
C1050       C  0.44300533  0.68545675  0.34756260    -0.07400
C1051       C  0.41660799  0.67073345  0.34787637     0.13500
C1052       C  0.39737926  0.67505029  0.38342834    -0.20900
C1053       C  0.40410101  0.69377979  0.41847226    -0.07400
C1054       C  0.43125364  0.70852548  0.41745052     0.13500
C1055       C  0.44146357  0.72969955  0.45237185    -0.24200
H1056       H  0.47072851  0.71473195  0.38089552     0.14700
H1057       H  0.37709196  0.66387360  0.38273319     0.14800
C1058       C  0.40819122  0.65149539  0.31015995    -0.24200
H1059       H  0.46336629  0.73809595  0.44431786     0.05000
H1060       H  0.44386514  0.71901372  0.48491102     0.08200
H1061       H  0.43018462  0.74406540  0.96769930     0.08200
H1062       H  0.42407269  0.63255183  0.30697514     0.08200
H1063       H  0.40797744  0.66449079  0.27909132     0.08200
H1064       H  0.38614788  0.64255027  0.31512930     0.05000
C1065       C  0.06477761  0.65935278  0.37634572    -0.20800
C1066       C  0.06561248  0.68117652  0.34349429    -0.07400
C1067       C  0.08873566  0.70118187  0.34486539     0.13500
C1068       C  0.10721740  0.70151823  0.38187992    -0.20900
C1069       C  0.10356697  0.68239943  0.41789411    -0.07400
C1070       C  0.08408174  0.65898849  0.41225158     0.13500
C1071       C  0.08400844  0.63239338  0.44218597    -0.24200
H1072       H  0.04872104  0.64248344  0.37434057     0.14700
H1073       H  0.12453880  0.71689801  0.38215651     0.14800
C1074       C  0.09534505  0.72186388  0.30740161    -0.24200
H1075       H  0.08691686  0.61209633  0.42217900     0.05000
H1076       H  0.06149318  0.63405636  0.95982087     0.08200
H1077       H  0.10219169  0.63197036  0.46599936     0.08200
H1078       H  0.08196366  0.71833558  0.27792706     0.08200
H1079       H  0.11852335  0.71833462  0.29699719     0.08200
H1080       H  0.09193114  0.74499558  0.31838032     0.05000
C1081       C  0.05217805  0.70593428  0.12065084    -0.20800
C1082       C  0.06038347  0.68794622  0.15591459    -0.07400
C1083       C  0.08706820  0.67168683  0.15520989     0.13500
C1084       C  0.10478089  0.67309872  0.11767654    -0.20900
C1085       C  0.09652535  0.69069968  0.08110204    -0.07400
C1086       C  0.06946446  0.70751074  0.08300765     0.13500
C1087       C  0.05733370  0.72662985  0.04579458    -0.24200
H1088       H  0.03138706  0.71819393  0.12211889     0.14700
H1089       H  0.12539467  0.66093222  0.11854900     0.14800
C1090       C  0.09812893  0.65384910  0.19407855    -0.24200
H1091       H  0.03848486  0.74084562  0.05691964     0.05000
H1092       H  0.04998278  0.71287769  0.51780508     0.08200
H1093       H  0.07369842  0.74149800  0.03216115     0.08200
H1094       H  0.08386907  0.65611634  0.22360980     0.08200
H1095       H  0.12002605  0.66129653  0.20340509     0.08200
H1096       H  0.09996964  0.63022322  0.18515077     0.05000
C1097       C  0.28579369  0.93528443  0.08215255    -0.20800
C1098       C  0.29787793  0.90613313  0.08324303    -0.07400
C1099       C  0.31180943  0.89719428  0.12343466     0.13500
C1100       C  0.31613702  0.91810522  0.15728470    -0.20900
C1101       C  0.30506263  0.94735082  0.15463579    -0.07400
C1102       C  0.28900877  0.95556484  0.11671452     0.13500
C1103       C  0.27573537  0.98621482  0.11189668    -0.24200
H1104       H  0.27377388  0.94260401  0.05333486     0.14700
H1105       H  0.32737332  0.91109729  0.18699939     0.14800
C1106       C  0.32176317  0.86609484  0.13384890    -0.24200
H1107       H  0.26497396  0.98960415  0.07959817     0.05000
H1108       H  0.29290895  0.00269876  0.11485666     0.08200
H1109       H  0.25890929  0.98995324  0.13791692     0.08200
H1110       H  0.34590981  0.86473217  0.13706185     0.08200
H1111       H  0.31492111  0.85015304  0.10953400     0.08200
H1112       H  0.31187321  0.85924988  0.16564051     0.05000
C1113       C  0.33070640  0.94228240  0.37801002    -0.20800
C1114       C  0.30997450  0.94204355  0.34457577    -0.07400
C1115       C  0.28986829  0.91955060  0.34306479     0.13500
C1116       C  0.28763261  0.90084147  0.37924025    -0.20900
C1117       C  0.30531864  0.90400523  0.41643480    -0.07400
C1118       C  0.32968865  0.92231928  0.41286969     0.13500
C1119       C  0.35531267  0.92124786  0.44380174    -0.24200
H1120       H  0.34785406  0.95812314  0.37693389     0.14700
H1121       H  0.27220630  0.88354512  0.37790526     0.14800
C1122       C  0.27193722  0.91435960  0.30275178    -0.24200
H1123       H  0.37586132  0.91788622  0.42444023     0.05000
H1124       H  0.35490892  0.90295348  0.46790942     0.08200
H1125       H  0.35619129  0.94241913  0.46170842     0.08200
H1126       H  0.28657236  0.91170519  0.27357374     0.08200
H1127       H  0.25635504  0.93315079  0.29715773     0.08200
H1128       H  0.25932008  0.89406300  0.30599486     0.05000
C1129       C  0.33654841  0.56107146  0.38842647    -0.20800
C1130       C  0.31674233  0.56575168  0.35386503    -0.07400
C1131       C  0.29949568  0.59242274  0.35419778     0.13500
C1132       C  0.30018024  0.61156384  0.39083246    -0.20900
C1133       C  0.31636476  0.60435542  0.42881950    -0.07400
C1134       C  0.33740519  0.58047814  0.42467731     0.13500
C1135       C  0.36277189  0.57618512  0.45558003    -0.24200
H1136       H  0.35166471  0.54213860  0.38716291     0.14700
H1137       H  0.28763027  0.63210776  0.38952284     0.14800
C1138       C  0.28097104  0.60143110  0.31532239    -0.24200
H1139       H  0.38347377  0.57467277  0.43622267     0.05000
H1140       H  0.36058957  0.55545766  0.47467082     0.08200
H1141       H  0.36491096  0.59496583  0.47828044     0.08200
H1142       H  0.26368636  0.58545482  0.31016703     0.08200
H1143       H  0.29490513  0.60250225  0.28529273     0.08200
H1144       H  0.26996543  0.62340128  0.32012511     0.05000
C1145       C  0.33306723  0.58840305  0.09788594    -0.20800
C1146       C  0.31026623  0.60998729  0.09730427    -0.07400
C1147       C  0.29392524  0.61518242  0.13656403     0.13500
C1148       C  0.29546268  0.59398932  0.16995873    -0.20900
C1149       C  0.31500659  0.56963319  0.16682047    -0.07400
C1150       C  0.33532795  0.56769625  0.13162033     0.13500
C1151       C  0.35826902  0.54306748  0.12757831    -0.24200
H1152       H  0.34862541  0.58685763  0.07087782     0.14700
H1153       H  0.28149276  0.59662559  0.19881475     0.14800
C1154       C  0.27566581  0.64287724  0.14537804    -0.24200
H1155       H  0.37099723  0.54450300  0.09637759     0.05000
H1156       H  0.34772399  0.52144389  0.12807446     0.08200
H1157       H  0.37401592  0.54419197  0.15495571     0.08200
H1158       H  0.25223999  0.63757170  0.14803036     0.08200
H1159       H  0.27850955  0.66010152  0.11994502     0.08200
H1160       H  0.28245450  0.65256469  0.17695863     0.05000
C1161       C  0.19821486  0.90981512  0.34831511    -0.20800
C1162       C  0.18308110  0.93727379  0.35100628    -0.07400
C1163       C  0.16748597  0.94383199  0.39012169     0.13500
C1164       C  0.16903093  0.92396383  0.42589089    -0.20900
C1165       C  0.18701295  0.89771964  0.42585301    -0.07400
C1166       C  0.19972892  0.88961792  0.38422436     0.13500
C1167       C  0.21310206  0.85945910  0.37499477    -0.24200
H1168       H  0.20839808  0.90383414  0.31717915     0.14700
H1169       H  0.15553157  0.92949413  0.45415392     0.14800
C1170       C  0.14992546  0.97240421  0.39522455    -0.24200
H1171       H  0.21951893  0.85689550  0.33985401     0.05000
H1172       H  0.19692744  0.84255433  0.38224377     0.08200
H1173       H  0.23309140  0.85498787  0.39410867     0.08200
H1174       H  0.13164246  0.97330831  0.37154675     0.08200
H1175       H  0.16418135  0.99130532  0.38926309     0.08200
H1176       H  0.14033059  0.97481300  0.42877240     0.05000
C1177       C  0.18703224  0.90341494  0.16930110    -0.20800
C1178       C  0.17153378  0.93028580  0.16438317    -0.07400
C1179       C  0.15463811  0.93593865  0.12667275     0.13500
C1180       C  0.15721629  0.91620808  0.09187310    -0.20900
C1181       C  0.17765248  0.89230335  0.09321761    -0.07400
C1182       C  0.18920191  0.88352314  0.13464086     0.13500
C1183       C  0.20415508  0.85395598  0.14364020    -0.24200
H1184       H  0.19830359  0.89839592  0.19981609     0.14700
H1185       H  0.14417236  0.92048986  0.06297096     0.14800
C1186       C  0.13584114  0.96371289  0.12139641    -0.24200
H1187       H  0.19322007  0.84332372  0.17204083     0.05000
H1188       H  0.22741594  0.85694290  0.15189772     0.08200
H1189       H  0.20305053  0.83851557  0.11576681     0.08200
H1190       H  0.14945081  0.98333233  0.12419425     0.08200
H1191       H  0.11847137  0.96452186  0.14713441     0.08200
H1192       H  0.12502538  0.96481234  0.08886421     0.05000
C1193       C  0.22237574  0.55617051  0.35987904    -0.20800
C1194       C  0.20143555  0.56283425  0.32816005    -0.07400
C1195       C  0.18317963  0.58831602  0.33200214     0.13500
C1196       C  0.18502709  0.60549081  0.36968483    -0.20900
C1197       C  0.20379584  0.59714924  0.40447132    -0.07400
C1198       C  0.22360911  0.57232570  0.39845371     0.13500
C1199       C  0.24538408  0.56099068  0.43243434    -0.24200
H1200       H  0.23662020  0.53673778  0.35583038     0.14700
H1201       H  0.17122296  0.62512676  0.37123360     0.14800
C1202       C  0.16203266  0.59777963  0.29634870    -0.24200
H1203       H  0.25996856  0.54296851  0.41923661     0.05000
H1204       H  0.23401710  0.55143283  0.46104789     0.08200
H1205       H  0.25999163  0.57822167  0.44323597     0.08200
H1206       H  0.14445760  0.58179059  0.29353781     0.08200
H1207       H  0.17385742  0.59946066  0.26441132     0.08200
H1208       H  0.15128640  0.61960855  0.30335986     0.05000
C1209       C  0.17407298  0.59418138  0.09072313    -0.20800
C1210       C  0.19986898  0.59249406  0.06525921    -0.07400
C1211       C  0.22168226  0.57093502  0.07692819     0.13500
C1212       C  0.21767137  0.55295036  0.11409094    -0.20900
C1213       C  0.19189038  0.55433955  0.13973740    -0.07400
C1214       C  0.16966770  0.57542713  0.12744432     0.13500
C1215       C  0.14116133  0.57844414  0.15238135    -0.24200
H1216       H  0.15664203  0.60936606  0.08075088     0.14700
H1217       H  0.23500109  0.53714951  0.12247197     0.14800
C1218       C  0.24941810  0.56546896  0.05067191    -0.24200
H1219       H  0.12666210  0.59615995  0.13833988     0.05000
H1220       H  0.14527519  0.58395057  0.18725244     0.08200
H1221       H  0.12936558  0.55759499  0.15054543     0.08200
H1222       H  0.26855419  0.56811395  0.07216625     0.08200
H1223       H  0.25147183  0.58062081  0.02237235     0.08200
H1224       H  0.25016404  0.54256969  0.03803868     0.05000
O1225       O  0.21189246  0.96681813  0.79144803    -0.75000
O1226       O  0.21229689  0.51689219  0.69483072    -0.75000
O1227       O  0.21743066  0.52159101  0.78269599    -0.75000
O1228       O  0.20582895  0.96137318  0.70393084    -0.75100
O1229       O  0.15759282  0.96966169  0.71049045    -0.75000
O1230       O  0.16950122  0.53159577  0.78845003    -0.75000
O1231       O  0.16462463  0.52721828  0.70057815    -0.75000
O1232       O  0.16379316  0.97456342  0.79886598    -0.75000
Ni1233     Ni  0.21395490  0.99304780  0.74170132     1.25400
Ni1234     Ni  0.16051480  0.50063141  0.75028978     1.25400
C1235       C  0.18789019  0.96185145  0.81158741     0.87200
C1236       C  0.18934073  0.53131875  0.68151371     0.87200
C1237       C  0.19578482  0.53716220  0.79778847     0.87200
C1238       C  0.17960979  0.95527769  0.69451201     0.87400
C1239       C  0.20435690  0.61623849  0.94330718     0.86000
C1240       C  0.18163056  0.64177542  0.94885770    -0.54300
C1241       C  0.18378450  0.65499690  0.49157327     0.08900
C1242       C  0.20829939  0.64169314  0.52181847     0.19800
C1243       C  0.23327247  0.63094627  0.95003630    -0.55000
C1244       C  0.23634393  0.64216514  0.49228524     0.09000
C1245       C  0.19913598  0.59655441  0.98380230    -0.54500
C1246       C  0.20152181  0.60856526  0.52681427     0.09600
H1247       H  0.16425249  0.64752017  0.92620402     0.14100
H1248       H  0.21026912  0.65320388  0.55371157    -0.00200
H1249       H  0.25080041  0.62870877  0.92662083     0.14400
H1250       H  0.19237038  0.57234072  0.48523901     0.14200
C1251       C  0.18966683  0.87706713  0.55186752     0.86000
C1252       C  0.17392465  0.84887754  0.54522587    -0.54300
C1253       C  0.18143923  0.83603638  0.00510250     0.08900
C1254       C  0.20597256  0.85222832  0.97873124     0.19800
C1255       C  0.22227519  0.86912253  0.54974885    -0.55000
C1256       C  0.23086723  0.85650908  0.01257105     0.09000
C1257       C  0.18479141  0.89521209  0.50916215    -0.54500
C1258       C  0.19367262  0.88449557  0.96961663     0.09600
H1259       H  0.15480870  0.84374081  0.56455479     0.14100
H1260       H  0.21407367  0.83932555  0.95035365    -0.00200
H1261       H  0.23753513  0.87780393  0.57305515     0.14400
H1262       H  0.17460564  0.91904885  0.00983001     0.14200
O1263       O  0.33952940  0.53305790  0.71267226    -0.75000
O1264       O  0.33353836  0.97158153  0.79546506    -0.75000
O1265       O  0.33113447  0.97381010  0.70643084    -0.75000
O1266       O  0.33942375  0.53096220  0.80183048    -0.75100
O1267       O  0.29102760  0.53749790  0.80263655    -0.75000
O1268       O  0.28278106  0.98072180  0.70925741    -0.75000
O1269       O  0.28492245  0.97726942  0.79841611    -0.75000
O1270       O  0.29106190  0.54014518  0.71402615    -0.75000
Ni1271     Ni  0.33669134  0.00211112  0.75378197     1.25400
Ni1272     Ni  0.28477473  0.00879203  0.75667040     1.25400
C1273       C  0.31637150  0.54664740  0.69959731     0.87200
C1274       C  0.30880551  0.96429640  0.81063279     0.87200
C1275       C  0.30560228  0.96804742  0.69195628     0.87200
C1276       C  0.31607484  0.54396184  0.81754993     0.87400
C1277       C  0.30537946  0.62468078  0.55390119     0.86000
C1278       C  0.32007641  0.65370035  0.54927847    -0.54300
C1279       C  0.31540709  0.66816155  0.01104005     0.08900
C1280       C  0.29477092  0.65200523  0.97902695     0.19800
C1281       C  0.27311885  0.63210915  0.54754957    -0.55000
C1282       C  0.26619423  0.64695115  0.00699868     0.09000
C1283       C  0.31379042  0.60629632  0.51225423    -0.54500
C1284       C  0.30936536  0.62073857  0.97286264     0.09600
H1285       H  0.33480483  0.66153163  0.57394491     0.14100
H1286       H  0.29073305  0.66437187  0.94799601    -0.00200
H1287       H  0.25648724  0.62433045  0.56995765     0.14400
H1288       H  0.31816143  0.58365825  0.01489618     0.14200
C1289       C  0.29877409  0.88616905  0.95802281     0.86000
C1290       C  0.31805278  0.85860052  0.96161790    -0.54300
C1291       C  0.31385386  0.84279778  0.49698277     0.08900
C1292       C  0.28936225  0.85598408  0.52873101     0.19800
C1293       C  0.26758000  0.87571627  0.96241876    -0.55000
C1294       C  0.26213048  0.85981647  0.49841309     0.09000
C1295       C  0.30282037  0.90371243  0.00083305    -0.54500
C1296       C  0.29808044  0.88836035  0.53917975     0.09600
H1297       H  0.33549058  0.85326123  0.93809473     0.14100
H1298       H  0.28467294  0.84208967  0.55778478    -0.00200
H1299       H  0.25024956  0.88311861  0.94077086     0.14400
H1300       H  0.30823643  0.92675343  0.50094019     0.14200
O1301       O  0.02897535  0.66327023  0.70549093    -0.75000
O1302       O  0.47011330  0.66339346  0.79384658    -0.75000
O1303       O  0.46998393  0.66571985  0.70448198    -0.75000
O1304       O  0.02929611  0.66131466  0.79437374    -0.75100
O1305       O  0.02984249  0.71030227  0.79564413    -0.75000
O1306       O  0.46975320  0.71456887  0.70781922    -0.75000
O1307       O  0.47083309  0.71252246  0.79656614    -0.75000
O1308       O  0.02861396  0.71249022  0.70739979    -0.75000
Ni1309     Ni  0.49963919  0.66174439  0.74961954     1.25400
Ni1310     Ni  0.49963692  0.71431354  0.75207351     1.25400
C1311       C  0.03830453  0.68791557  0.69206850     0.87200
C1312       C  0.46124543  0.68802062  0.81006657     0.87200
C1313       C  0.46043160  0.69104256  0.69047575     0.87200
C1314       C  0.03992805  0.68512320  0.80911120     0.87400
C1315       C  0.11640304  0.69220580  0.54310381     0.86000
C1316       C  0.14490543  0.67327652  0.54141994    -0.54300
C1317       C  0.16077788  0.67830741  0.00106688     0.08900
C1318       C  0.14697391  0.70226193  0.96987081     0.19800
C1319       C  0.12678406  0.72343631  0.53897365    -0.55000
C1320       C  0.14265480  0.73003839  0.00015167     0.09000
C1321       C  0.10110922  0.68492485  0.50005309    -0.54500
C1322       C  0.11597370  0.69087518  0.96076135     0.09600
H1323       H  0.15099837  0.65613586  0.56455397     0.14100
H1324       H  0.16003386  0.70614966  0.93956361    -0.00200
H1325       H  0.12041412  0.74042410  0.56246618     0.14400
H1326       H  0.07915685  0.67787778  0.99911751     0.14200
C1327       C  0.38404514  0.69780003  0.96015100     0.86000
C1328       C  0.35442714  0.68296906  0.96099724    -0.54300
C1329       C  0.33804426  0.68831110  0.49613395     0.08900
C1330       C  0.35275768  0.71046690  0.52765522     0.19800
C1331       C  0.37589304  0.73043406  0.96533714    -0.55000
C1332       C  0.35804795  0.73766319  0.49764760     0.09000
C1333       C  0.39839979  0.68748292  0.00304040    -0.54500
C1334       C  0.38361946  0.69611155  0.53687832     0.09600
H1335       H  0.34801553  0.66629215  0.93818009     0.14100
H1336       H  0.34000876  0.71587534  0.55800156    -0.00200
H1337       H  0.38488609  0.74693861  0.94434532     0.14400
H1338       H  0.42004120  0.67834492  0.50037318     0.14200
O1339       O  0.46596261  0.79154334  0.79276451    -0.75000
O1340       O  0.02407445  0.78593078  0.70012172    -0.75000
O1341       O  0.02460399  0.78290702  0.78925559    -0.75000
O1342       O  0.46576563  0.79569274  0.70408665    -0.75100
O1343       O  0.47067145  0.84419258  0.70757664    -0.75000
O1344       O  0.03063874  0.83145408  0.79125443    -0.75000
O1345       O  0.02968178  0.83442146  0.70213505    -0.75000
O1346       O  0.47164700  0.83982742  0.79717461    -0.75000
Ni1347     Ni  0.49501749  0.78722014  0.74647755     1.25400
Ni1348     Ni  0.50090246  0.83913240  0.74968965     1.25400
C1349       C  0.45916178  0.81639307  0.81073960     0.87200
C1350       C  0.03634191  0.80898780  0.68546188     0.87200
C1351       C  0.03717409  0.80531159  0.80432182     0.87200
C1352       C  0.45859358  0.82188014  0.69158039     0.87400
C1353       C  0.11984921  0.80085977  0.94638606     0.86000
C1354       C  0.14664744  0.81926835  0.95150001    -0.54300
C1355       C  0.16200725  0.81159485  0.49199888     0.08900
C1356       C  0.14744320  0.78690886  0.52053904     0.19800
C1357       C  0.13135371  0.76912540  0.94914565    -0.55000
C1358       C  0.14504298  0.76035332  0.48841240     0.09000
C1359       C  0.10270153  0.80703542  0.98954312    -0.54500
C1360       C  0.11512344  0.79822563  0.52910787     0.09600
H1361       H  0.14954073  0.83973316  0.93428278     0.14100
H1362       H  0.16043166  0.78075276  0.54967895    -0.00200
H1363       H  0.12453560  0.75298267  0.92610039     0.14400
H1364       H  0.08103489  0.81686824  0.48756573     0.14200
C1365       C  0.38103725  0.80759179  0.54820166     0.86000
C1366       C  0.35443732  0.82758255  0.54307648    -0.54300
C1367       C  0.33739570  0.82125450  0.01100959     0.08900
C1368       C  0.35084484  0.79596507  0.98123313     0.19800
C1369       C  0.37007044  0.77627561  0.54752611    -0.55000
C1370       C  0.35616329  0.76931175  0.01389039     0.09000
C1371       C  0.39813862  0.81007625  0.50409451    -0.54500
C1372       C  0.38227473  0.80590128  0.96768883     0.09600
H1373       H  0.35116639  0.84739698  0.56213239     0.14100
H1374       H  0.33563725  0.79154056  0.95448194    -0.00200
H1375       H  0.37583496  0.76004551  0.57224212     0.14400
H1376       H  0.42104597  0.81586223  0.00302435     0.14200
C1377       C  0.41430970  0.79668433  0.84769277    -0.20800
C1378       C  0.43658388  0.81719218  0.84769340    -0.07400
C1379       C  0.43712376  0.83677286  0.88363635     0.13500
C1380       C  0.41733997  0.83364031  0.91937630    -0.20900
C1381       C  0.39660202  0.81114544  0.92194607    -0.07400
C1382       C  0.39379232  0.79402708  0.88273076     0.13500
C1383       C  0.36982375  0.77315700  0.87372455    -0.24200
H1384       H  0.41263973  0.78246497  0.81935440     0.14700
H1385       H  0.41873667  0.84883888  0.94651600     0.14800
C1386       C  0.45938502  0.86029481  0.88579377    -0.24200
H1387       H  0.35786071  0.78066605  0.84385995     0.05000
H1388       H  0.35359420  0.77144960  0.89999158     0.08200
H1389       H  0.37945365  0.75074645  0.86732484     0.08200
H1390       H  0.45611573  0.87610931  0.85815326     0.08200
H1391       H  0.48177143  0.85006634  0.88394712     0.08200
H1392       H  0.45750213  0.87298066  0.91687806     0.05000
C1393       C  0.41105048  0.80836654  0.66516410    -0.20800
C1394       C  0.43556952  0.82540036  0.65882396    -0.07400
C1395       C  0.43823338  0.84222249  0.61979256     0.13500
C1396       C  0.41920760  0.83700351  0.58532665    -0.20900
C1397       C  0.39765536  0.81579858  0.58905393    -0.07400
C1398       C  0.39095268  0.80488957  0.63171299     0.13500
C1399       C  0.36280081  0.79063488  0.64428560    -0.24200
H1400       H  0.40761036  0.79754103  0.69662535     0.14700
H1401       H  0.42172168  0.84935804  0.55503338     0.14800
C1402       C  0.46078216  0.86512106  0.61201460    -0.24200
H1403       H  0.35339854  0.80147283  0.67415932     0.05000
H1404       H  0.36715449  0.76692008  0.65178494     0.08200
H1405       H  0.34577678  0.79317431  0.61886308     0.08200
H1406       H  0.47630135  0.86727092  0.63918505     0.08200
H1407       H  0.44948420  0.88692499  0.60697592     0.08200
H1408       H  0.47361912  0.85971055  0.58175574     0.05000
C1409       C  0.08553314  0.81569039  0.83192362    -0.20800
C1410       C  0.05921198  0.80159519  0.83802435    -0.07400
C1411       C  0.05342608  0.78663464  0.87740825     0.13500
C1412       C  0.07365290  0.78773417  0.91103196    -0.20900
C1413       C  0.09968322  0.80348935  0.90680500    -0.07400
C1414       C  0.10637973  0.81616626  0.86518373     0.13500
C1415       C  0.13526627  0.82884559  0.85344766    -0.24200
H1416       H  0.08976482  0.82639654  0.80061951     0.14700
H1417       H  0.06914718  0.77579441  0.94119741     0.14800
C1418       C  0.02564997  0.77032271  0.88478158    -0.24200
H1419       H  0.13765878  0.83243420  0.81742418     0.05000
H1420       H  0.15333690  0.81326536  0.86313381     0.03000
H1421       H  0.13687424  0.85080316  0.86866575     0.08200
H1422       H  0.02460461  0.75197181  0.86101321     0.08200
H1423       H  0.00636494  0.78559736  0.88052537     0.08200
H1424       H  0.02445200  0.76067148  0.91838949     0.05000
C1425       C  0.08744609  0.80408829  0.65242400    -0.20800
C1426       C  0.05700844  0.80600952  0.64678331    -0.07400
C1427       C  0.04625990  0.80230149  0.60411674     0.13500
C1428       C  0.06569303  0.79933136  0.56809272    -0.20900
C1429       C  0.09659998  0.79913566  0.57216387    -0.07400
C1430       C  0.10728200  0.79946356  0.61636456     0.13500
C1431       C  0.13879518  0.79290256  0.62752570    -0.24200
H1432       H  0.09570253  0.80503621  0.68564585     0.14700
H1433       H  0.05598412  0.79581618  0.53645640     0.14800
C1434       C  0.01390176  0.80113254  0.59652125    -0.24200
H1435       H  0.14257160  0.79402108  0.66349681     0.05000
H1436       H  0.15325078  0.80884596  0.61205760     0.08200
H1437       H  0.14514757  0.77013344  0.61737667     0.08200
H1438       H  0.00296166  0.82151007  0.60914216     0.08200
H1439       H  0.00514435  0.78199036  0.61436874     0.08200
H1440       H  0.00860519  0.79900555  0.56114471     0.05000
C1441       C  0.42291602  0.66845216  0.64166558    -0.20800
C1442       C  0.43898481  0.69315794  0.65294023    -0.07400
C1443       C  0.43597289  0.71855055  0.62551440     0.13500
C1444       C  0.41716293  0.71867483  0.58927164    -0.20900
C1445       C  0.39987430  0.69481561  0.57957394    -0.07400
C1446       C  0.40431644  0.66863719  0.60472421     0.13500
C1447       C  0.39174950  0.63986239  0.59171421    -0.24200
H1448       H  0.42571806  0.64832829  0.66074736     0.14700
H1449       H  0.41753812  0.73700383  0.56643728     0.14800
C1450       C  0.45324854  0.74549658  0.63273503    -0.24200
H1451       H  0.40968643  0.62290228  0.58787602     0.05000
H1452       H  0.38021488  0.64119715  0.55992109     0.08200
H1453       H  0.37646607  0.63256579  0.61779448     0.08200
H1454       H  0.47696355  0.73954412  0.63226584     0.08200
H1455       H  0.44654539  0.75499457  0.66476419     0.08200
H1456       H  0.44909994  0.76273541  0.60722871     0.05000
C1457       C  0.44993605  0.70474237  0.88340877    -0.20800
C1458       C  0.44143691  0.68858056  0.84736002    -0.07400
C1459       C  0.41486458  0.67422657  0.84767001     0.13500
C1460       C  0.39675865  0.67689978  0.88474249    -0.20900
C1461       C  0.40489043  0.69338749  0.92156583    -0.07400
C1462       C  0.43248425  0.70730230  0.92084573     0.13500
C1463       C  0.44463687  0.72506653  0.95840492    -0.24200
H1464       H  0.47081593  0.71529112  0.88223936     0.14700
H1465       H  0.37611708  0.66642403  0.88362438     0.14800
C1466       C  0.40504815  0.65720909  0.80837355    -0.24200
H1467       H  0.46588588  0.73459477  0.94938600     0.05000
H1468       H  0.44920132  0.71111755  0.98760292     0.08200
H1469       H  0.42697430  0.74958798  0.45511666     0.08200
H1470       H  0.42047965  0.63826026  0.80201866     0.08200
H1471       H  0.40421690  0.67181684  0.77894669     0.08200
H1472       H  0.38297982  0.64838257  0.81360784     0.05000
C1473       C  0.06275998  0.66189159  0.87602362    -0.20800
C1474       C  0.06362463  0.68361478  0.84304758    -0.07400
C1475       C  0.08706201  0.70327413  0.84380535     0.13500
C1476       C  0.10588407  0.70341155  0.88043834    -0.20900
C1477       C  0.10227959  0.68438770  0.91659838    -0.07400
C1478       C  0.08243783  0.66125218  0.91142804     0.13500
C1479       C  0.08244990  0.63456555  0.94118541    -0.24200
H1480       H  0.04648208  0.64521920  0.87438745     0.14700
H1481       H  0.12350060  0.71846153  0.88019169     0.14800
C1482       C  0.09374224  0.72367031  0.80601408    -0.24200
H1483       H  0.08485657  0.61431926  0.92096829     0.05000
H1484       H  0.06282779  0.63170412  0.46020146     0.08200
H1485       H  0.10096339  0.63382716  0.96442370     0.08200
H1486       H  0.07999517  0.72036389  0.77686924     0.08200
H1487       H  0.11675992  0.71961798  0.79513749     0.08200
H1488       H  0.09094409  0.74687761  0.81686637     0.05000
C1489       C  0.05128919  0.70618239  0.62047643    -0.20800
C1490       C  0.05909364  0.68846108  0.65620569    -0.07400
C1491       C  0.08536361  0.67151014  0.65601782     0.13500
C1492       C  0.10322918  0.67219260  0.61866251    -0.20900
C1493       C  0.09561129  0.68985815  0.58190477    -0.07400
C1494       C  0.06877635  0.70711687  0.58302354     0.13500
C1495       C  0.05729053  0.72638351  0.54543975    -0.24200
H1496       H  0.03071519  0.71884760  0.62153573     0.14700
H1497       H  0.12348600  0.65942603  0.61985152     0.14800
C1498       C  0.09586087  0.65366036  0.69522652    -0.24200
H1499       H  0.03778266  0.74006619  0.55556531     0.05000
H1500       H  0.04874339  0.71298271  0.01922908     0.08200
H1501       H  0.07356442  0.74193245  0.53347709     0.08200
H1502       H  0.08169312  0.65664545  0.72473220     0.08200
H1503       H  0.11801296  0.66046079  0.70441541     0.08200
H1504       H  0.09694896  0.62993787  0.68672447     0.05000
C1505       C  0.28317733  0.93393318  0.58206032    -0.20800
C1506       C  0.29665833  0.90535898  0.58294091    -0.07400
C1507       C  0.31094390  0.89691419  0.62296578     0.13500
C1508       C  0.31446268  0.91794917  0.65684403    -0.20900
C1509       C  0.30208234  0.94671794  0.65445850    -0.07400
C1510       C  0.28540085  0.95426498  0.61683109     0.13500
C1511       C  0.27059960  0.98429068  0.61234026    -0.24200
H1512       H  0.27096938  0.94076704  0.55316841     0.14700
H1513       H  0.32618587  0.91139557  0.68634396     0.14800
C1514       C  0.32210625  0.86614401  0.63295939    -0.24200
H1515       H  0.25964343  0.98722934  0.58010315     0.05000
H1516       H  0.28691079  0.00164285  0.61529173     0.08200
H1517       H  0.25364653  0.98721245  0.63841386     0.08200
H1518       H  0.34630977  0.86557042  0.63517801     0.08200
H1519       H  0.31519640  0.85002379  0.60888934     0.08200
H1520       H  0.31301001  0.85893813  0.66510778     0.05000
C1521       C  0.32925415  0.94214215  0.87743487    -0.20800
C1522       C  0.30837532  0.94144583  0.84422788    -0.07400
C1523       C  0.28861552  0.91857655  0.84316687     0.13500
C1524       C  0.28733674  0.89952046  0.87910583    -0.20900
C1525       C  0.30515177  0.90309518  0.91613085    -0.07400
C1526       C  0.32887237  0.92221186  0.91239919     0.13500
C1527       C  0.35443410  0.92210677  0.94340103    -0.24200
H1528       H  0.34599682  0.95841366  0.87617497     0.14700
H1529       H  0.27239720  0.88171870  0.87776044     0.14800
C1530       C  0.26980166  0.91346162  0.80375896    -0.24200
H1531       H  0.37510020  0.91953728  0.92412806     0.05000
H1532       H  0.35463560  0.90373130  0.96742586     0.08200
H1533       H  0.35449150  0.94332513  0.96134507     0.08200
H1534       H  0.28381252  0.91041458  0.77397830     0.08200
H1535       H  0.25447443  0.93246081  0.79865792     0.08200
H1536       H  0.25662915  0.89357509  0.80792556     0.05000
C1537       C  0.33638813  0.56102098  0.88961644    -0.20800
C1538       C  0.31765650  0.56642495  0.85395256    -0.07400
C1539       C  0.30100694  0.59346401  0.85374124     0.13500
C1540       C  0.30151493  0.61256898  0.89048515    -0.20900
C1541       C  0.31663534  0.60484514  0.92930174    -0.07400
C1542       C  0.33691453  0.58022052  0.92614836     0.13500
C1543       C  0.36124772  0.57475162  0.95854857    -0.24200
H1544       H  0.35091115  0.54161571  0.88904010     0.14700
H1545       H  0.28948694  0.63339334  0.88871261     0.14800
C1546       C  0.28306605  0.60272070  0.81438295    -0.24200
H1547       H  0.38237982  0.57220425  0.94045851     0.05000
H1548       H  0.35757977  0.55420416  0.97745212     0.08200
H1549       H  0.36370175  0.59341553  0.98135331     0.08200
H1550       H  0.26539713  0.58713363  0.80919801     0.08200
H1551       H  0.29729972  0.60327066  0.78462335     0.08200
H1552       H  0.27257369  0.62497337  0.81870773     0.05000
C1553       C  0.33570173  0.58766108  0.59682539    -0.20800
C1554       C  0.31312536  0.60952088  0.59690068    -0.07400
C1555       C  0.29796471  0.61556540  0.63691911     0.13500
C1556       C  0.29988257  0.59471801  0.67065433    -0.20900
C1557       C  0.31870410  0.56988370  0.66683703    -0.07400
C1558       C  0.33836935  0.56728169  0.63094241     0.13500
C1559       C  0.36085898  0.54226254  0.62667363    -0.24200
H1560       H  0.35070917  0.58564548  0.56918724     0.14700
H1561       H  0.28654298  0.59781595  0.70008072     0.14800
C1562       C  0.28022647  0.64357049  0.64587730    -0.24200
H1563       H  0.37325741  0.54331661  0.59513023     0.05000
H1564       H  0.34995996  0.52083584  0.62780575     0.08200
H1565       H  0.37691063  0.54327342  0.65366436     0.08200
H1566       H  0.25685387  0.63851947  0.65045137     0.08200
H1567       H  0.28230614  0.66031763  0.61956481     0.08200
H1568       H  0.28810396  0.65372065  0.67649496     0.05000
C1569       C  0.19319374  0.91139144  0.84611593    -0.20800
C1570       C  0.18870478  0.94194634  0.85108014    -0.07400
C1571       C  0.18881156  0.95350464  0.89382241     0.13500
C1572       C  0.19206925  0.93442688  0.93032003    -0.20900
C1573       C  0.19411151  0.90316063  0.92669645    -0.07400
C1574       C  0.19637012  0.89196332  0.88279696     0.13500
C1575       C  0.20373803  0.86018111  0.87293943    -0.24200
H1576       H  0.19489300  0.90272175  0.81300545     0.14700
H1577       H  0.19393694  0.94483057  0.96188181     0.14800
C1578       C  0.18639741  0.98633851  0.90096265    -0.24200
H1579       H  0.20296094  0.85549891  0.83716051     0.05000
H1580       H  0.18807559  0.84585299  0.88930793     0.08200
H1581       H  0.22629968  0.85447795  0.88367591     0.08200
H1582       H  0.16552056  0.99539908  0.88730281     0.08200
H1583       H  0.20489920  0.99693477  0.88416399     0.08200
H1584       H  0.18696842  0.99210967  0.93638319     0.05000
C1585       C  0.19046879  0.90517057  0.66905269    -0.20800
C1586       C  0.17503423  0.93199179  0.66329741    -0.07400
C1587       C  0.15801936  0.93715587  0.62556677     0.13500
C1588       C  0.15994851  0.91662875  0.59178775    -0.20900
C1589       C  0.17994242  0.89237465  0.59395868    -0.07400
C1590       C  0.19208136  0.88451268  0.63536138     0.13500
C1591       C  0.20717104  0.85514890  0.64525277    -0.24200
H1592       H  0.20196381  0.90069151  0.69954221     0.14700
H1593       H  0.14688904  0.92058796  0.56277273     0.14800
C1594       C  0.13980216  0.96521021  0.61910089    -0.24200
H1595       H  0.19680130  0.84520975  0.67470544     0.05000
H1596       H  0.23059900  0.85830592  0.65221999     0.08200
H1597       H  0.20548278  0.83905461  0.61832176     0.08200
H1598       H  0.15386156  0.98455346  0.62101019     0.08200
H1599       H  0.12244405  0.96693238  0.64479200     0.08200
H1600       H  0.12898920  0.96591401  0.58655430     0.05000
C1601       C  0.22268094  0.55513393  0.85995154    -0.20800
C1602       C  0.20102020  0.56059421  0.82888328    -0.07400
C1603       C  0.18333291  0.58661428  0.83092438     0.13500
C1604       C  0.18608845  0.60532859  0.86672876    -0.20900
C1605       C  0.20518514  0.59805822  0.90145265    -0.07400
C1606       C  0.22498275  0.57307045  0.89658543     0.13500
C1607       C  0.24730869  0.56295509  0.93048298    -0.24200
H1608       H  0.23647674  0.53525891  0.85735458     0.14700
H1609       H  0.17251381  0.62516726  0.86726327     0.14800
C1610       C  0.16167854  0.59497227  0.79544273    -0.24200
H1611       H  0.26258105  0.54548277  0.91734969     0.05000
H1612       H  0.23639041  0.55313458  0.95929130     0.08200
H1613       H  0.26116603  0.58085770  0.94094684     0.08200
H1614       H  0.14361094  0.57940335  0.79523267     0.08200
H1615       H  0.17292031  0.59487824  0.76291372     0.08200
H1616       H  0.15163073  0.61734089  0.80061827     0.05000
C1617       C  0.17448438  0.59321689  0.59515142    -0.20800
C1618       C  0.19994129  0.59110744  0.56900345    -0.07400
C1619       C  0.22162101  0.56929676  0.58029844     0.13500
C1620       C  0.21761560  0.55116061  0.61742059    -0.20900
C1621       C  0.19195567  0.55267122  0.64333215    -0.07400
C1622       C  0.17007395  0.57437526  0.63177412     0.13500
C1623       C  0.14187464  0.57803380  0.65741405    -0.24200
H1624       H  0.15727092  0.60884217  0.58577338     0.14700
H1625       H  0.23476128  0.53513883  0.62551079     0.14800
C1626       C  0.24919873  0.56381513  0.55363805    -0.24200
H1627       H  0.12782717  0.59640221  0.64421982     0.05000
H1628       H  0.14649290  0.58295928  0.69231338     0.08200
H1629       H  0.12931660  0.55768006  0.65526595     0.08200
H1630       H  0.26849381  0.56648363  0.57484334     0.08200
H1631       H  0.25107738  0.57896496  0.52527678     0.08200
H1632       H  0.24981874  0.54094267  0.54091359     0.05000
O1633       O  0.71263702  0.46790573  0.29066302    -0.75000
O1634       O  0.71225629  0.01710197  0.19489083    -0.75000
O1635       O  0.71751678  0.02173463  0.28279399    -0.75000
O1636       O  0.70618113  0.46240275  0.20319558    -0.75100
O1637       O  0.65799648  0.47085184  0.21016442    -0.75000
O1638       O  0.66951429  0.03130249  0.28868571    -0.75000
O1639       O  0.66450074  0.02696057  0.20075663    -0.75000
O1640       O  0.66456713  0.47570213  0.29840598    -0.75000
Ni1641     Ni  0.71456879  0.49408502  0.24088096     1.25400
Ni1642     Ni  0.66077361  0.00027250  0.25046988     1.25400
C1643       C  0.68868185  0.46292419  0.31090796     0.87200
C1644       C  0.68914631  0.03127422  0.18159828     0.87200
C1645       C  0.69574996  0.03705203  0.29805189     0.87200
C1646       C  0.67989407  0.45638250  0.19400977     0.87400
C1647       C  0.70401947  0.11600663  0.44396744     0.86000
C1648       C  0.68138293  0.14165349  0.44929554    -0.54300
C1649       C  0.68296525  0.15491347  0.99150272     0.08900
C1650       C  0.70747930  0.14150116  0.02158752     0.19800
C1651       C  0.73300998  0.13060735  0.45056370    -0.55000
C1652       C  0.73540429  0.14192082  0.99187454     0.09000
C1653       C  0.69874142  0.09651412  0.48465291    -0.54500
C1654       C  0.70063439  0.10840297  0.02662624     0.09600
H1655       H  0.66397970  0.14731534  0.42664378     0.14100
H1656       H  0.70959426  0.15300175  0.05346224    -0.00200
H1657       H  0.75053472  0.12816589  0.42718815     0.14400
H1658       H  0.69135248  0.07220106  0.98509720     0.14200
C1659       C  0.68860921  0.37796652  0.05160739     0.86000
C1660       C  0.67266838  0.34990661  0.04481373    -0.54300
C1661       C  0.68043860  0.33660379  0.50395983     0.08900
C1662       C  0.70503871  0.35264936  0.47752310     0.19800
C1663       C  0.72118820  0.36986537  0.04932660    -0.55000
C1664       C  0.72976975  0.35700476  0.51151623     0.09000
C1665       C  0.68373663  0.39623334  0.00901780    -0.54500
C1666       C  0.69291415  0.38491260  0.46802905     0.09600
H1667       H  0.65346385  0.34489088  0.06400387     0.14100
H1668       H  0.71318642  0.33972025  0.44915224    -0.00200
H1669       H  0.73654939  0.37845281  0.07255340     0.14400
H1670       H  0.67377192  0.41975184  0.50723166     0.14200
O1671       O  0.84011969  0.03392042  0.21316545    -0.75000
O1672       O  0.83284737  0.47167984  0.29512062    -0.75000
O1673       O  0.83017289  0.47390369  0.20615779    -0.75000
O1674       O  0.84009707  0.03181130  0.30236048    -0.75100
O1675       O  0.79164898  0.03776419  0.30320106    -0.75000
O1676       O  0.78184102  0.48097637  0.20923701    -0.75000
O1677       O  0.78424776  0.47748379  0.29835837    -0.75000
O1678       O  0.79159413  0.04034066  0.21457958    -0.75000
Ni1679     Ni  0.83595188  0.50220056  0.25342906     1.25400
Ni1680     Ni  0.78405776  0.50904655  0.25662533     1.25400
C1681       C  0.81678426  0.04718478  0.20006363     0.87200
C1682       C  0.80813239  0.46439306  0.31033910     0.87200
C1683       C  0.80458449  0.46822111  0.19182906     0.87200
C1684       C  0.81660431  0.04452314  0.31809874     0.87400
C1685       C  0.80452378  0.12465507  0.05352502     0.86000
C1686       C  0.81864039  0.15402968  0.04915229    -0.54300
C1687       C  0.81495762  0.16894812  0.51130574     0.08900
C1688       C  0.79451958  0.15249422  0.47928358     0.19800
C1689       C  0.77221236  0.13149164  0.04692396    -0.55000
C1690       C  0.76600397  0.14705510  0.50722015     0.09000
C1691       C  0.81341717  0.10651701  0.01184514    -0.54500
C1692       C  0.80951609  0.12140748  0.47317887     0.09600
H1693       H  0.83295185  0.16220893  0.07408385     0.14100
H1694       H  0.79031284  0.16479712  0.44824690    -0.00200
H1695       H  0.75563645  0.12345409  0.06919672     0.14400
H1696       H  0.81892224  0.08449262  0.51527592     0.14200
C1697       C  0.79792014  0.38600472  0.45721285     0.86000
C1698       C  0.81710933  0.35841165  0.46115144    -0.54300
C1699       C  0.81280339  0.34302663  0.99712095     0.08900
C1700       C  0.78817225  0.35624382  0.02860988     0.19800
C1701       C  0.76671617  0.37562322  0.46141125    -0.55000
C1702       C  0.76101322  0.36006542  0.99808643     0.09000
C1703       C  0.80185896  0.40368056  0.49997957    -0.54500
C1704       C  0.79687623  0.38861959  0.03902177     0.09600
H1705       H  0.83463576  0.35298116  0.43781872     0.14100
H1706       H  0.78337220  0.34238576  0.05765475    -0.00200
H1707       H  0.74949738  0.38296094  0.43954586     0.14400
H1708       H  0.80713273  0.42697053  0.00072276     0.14200
O1709       O  0.52852817  0.16347793  0.20521000    -0.75000
O1710       O  0.96895807  0.16372419  0.29281859    -0.75000
O1711       O  0.96922974  0.16618682  0.20352272    -0.75000
O1712       O  0.52856389  0.16111866  0.29419079    -0.75100
O1713       O  0.52876165  0.21010938  0.29592203    -0.75000
O1714       O  0.96922902  0.21504846  0.20668629    -0.75000
O1715       O  0.96971293  0.21285453  0.29541592    -0.75000
O1716       O  0.52789882  0.21268896  0.20763500    -0.75000
Ni1717     Ni  0.99872567  0.16205017  0.24893728     1.25400
Ni1718     Ni  0.99885777  0.21460802  0.25145186     1.25400
C1719       C  0.53781599  0.18823946  0.19217426     0.87200
C1720       C  0.96003789  0.18838089  0.30888272     0.87200
C1721       C  0.95975380  0.19153532  0.18948019     0.87200
C1722       C  0.53896092  0.18494413  0.30931240     0.87400
C1723       C  0.61627110  0.19287646  0.04359732     0.86000
C1724       C  0.64460140  0.17372028  0.04171822    -0.54300
C1725       C  0.66046368  0.17834275  0.50122215     0.08900
C1726       C  0.64643626  0.20218649  0.46993946     0.19800
C1727       C  0.62685850  0.22401008  0.03930702    -0.55000
C1728       C  0.64225505  0.23010736  0.50003915     0.09000
C1729       C  0.60078230  0.18567689  0.00068617    -0.54500
C1730       C  0.61535780  0.19075874  0.46126922     0.09600
H1731       H  0.65055002  0.15648037  0.06477687     0.14100
H1732       H  0.65933567  0.20597668  0.43944856    -0.00200
H1733       H  0.62058308  0.24105273  0.06275461     0.14400
H1734       H  0.57875782  0.17796013  0.50029814     0.14200
C1735       C  0.88359153  0.19839317  0.45989684     0.86000
C1736       C  0.85397923  0.18356741  0.46105923    -0.54300
C1737       C  0.83664136  0.18853922  0.99587840     0.08900
C1738       C  0.85132202  0.21063704  0.02747764     0.19800
C1739       C  0.87546459  0.23102547  0.46529357    -0.55000
C1740       C  0.85671460  0.23782647  0.99753253     0.09000
C1741       C  0.89818657  0.18806660  0.50264081    -0.54500
C1742       C  0.88211440  0.19619212  0.03684301     0.09600
H1743       H  0.84740140  0.16697673  0.43823223     0.14100
H1744       H  0.83851452  0.21606884  0.05776236    -0.00200
H1745       H  0.88428598  0.24757384  0.44422639     0.14400
H1746       H  0.91858797  0.17841316  0.00045972     0.14200
O1747       O  0.96540525  0.29118752  0.29354699    -0.75000
O1748       O  0.52347544  0.28500482  0.20023796    -0.75000
O1749       O  0.52403988  0.28227376  0.28932678    -0.75000
O1750       O  0.96491167  0.29472961  0.20487568    -0.75100
O1751       O  0.96979235  0.34326411  0.20769100    -0.75000
O1752       O  0.52983716  0.33087775  0.29101771    -0.75000
O1753       O  0.52889860  0.33352675  0.20198003    -0.75000
O1754       O  0.97100920  0.33951857  0.29727858    -0.75000
Ni1755     Ni  0.99430440  0.28662838  0.24706086     1.25400
Ni1756     Ni  0.00012519  0.33858048  0.24966249     1.25400
C1757       C  0.95860254  0.31614597  0.31121349     0.87200
C1758       C  0.53566601  0.30808322  0.18544052     0.87200
C1759       C  0.53650620  0.30479223  0.30416105     0.87200
C1760       C  0.95775802  0.32082415  0.19199635     0.87400
C1761       C  0.61933899  0.30078922  0.44558563     0.86000
C1762       C  0.64612042  0.31917443  0.45047307    -0.54300
C1763       C  0.66091867  0.31240859  0.99165890     0.08900
C1764       C  0.64682824  0.28749340  0.02026672     0.19800
C1765       C  0.63078749  0.26905068  0.44872122    -0.55000
C1766       C  0.64486139  0.26077785  0.98828985     0.09000
C1767       C  0.60217137  0.30726681  0.48861476    -0.54500
C1768       C  0.61436515  0.29828486  0.02881281     0.09600
H1769       H  0.64885899  0.33964525  0.43321430     0.14100
H1770       H  0.65990582  0.28164218  0.04944454    -0.00200
H1771       H  0.62398867  0.25279720  0.42579828     0.14400
H1772       H  0.57988172  0.31605392  0.98719205     0.14200
C1773       C  0.87988061  0.30750561  0.04853924     0.86000
C1774       C  0.85329231  0.32757014  0.04349636    -0.54300
C1775       C  0.83638741  0.32146350  0.51113305     0.08900
C1776       C  0.85018197  0.29630965  0.48150801     0.19800
C1777       C  0.86891808  0.27621416  0.04757120    -0.55000
C1778       C  0.85576437  0.26976704  0.51417574     0.09000
C1779       C  0.89702826  0.31010986  0.00448928    -0.54500
C1780       C  0.88150109  0.30657253  0.46803882     0.09600
H1781       H  0.85007332  0.34734656  0.06263508     0.14100
H1782       H  0.83502251  0.29166850  0.45482142    -0.00200
H1783       H  0.87491647  0.25982201  0.07196102     0.14400
H1784       H  0.92007503  0.31704329  0.50355159     0.14200
C1785       C  0.91370700  0.29675818  0.34824594    -0.20800
C1786       C  0.93604245  0.31717126  0.34815150    -0.07400
C1787       C  0.93653979  0.33696399  0.38383849     0.13500
C1788       C  0.91671063  0.33402542  0.41956566    -0.20900
C1789       C  0.89591021  0.31159194  0.42228534    -0.07400
C1790       C  0.89306969  0.29437474  0.38314907     0.13500
C1791       C  0.86892358  0.27374946  0.37390746    -0.24200
H1792       H  0.91203534  0.28244567  0.32001113     0.14700
H1793       H  0.91807979  0.34937188  0.44652073     0.14800
C1794       C  0.95874612  0.36055309  0.38569419    -0.24200
H1795       H  0.85710100  0.28143673  0.34400861     0.05000
H1796       H  0.85261218  0.27207461  0.40002373     0.08200
H1797       H  0.87836646  0.25127581  0.36742100     0.08200
H1798       H  0.95546633  0.37618062  0.35782147     0.08200
H1799       H  0.98115449  0.35036760  0.38402495     0.08200
H1800       H  0.95679985  0.37344192  0.41658703     0.05000
C1801       C  0.91033963  0.30713636  0.16526056    -0.20800
C1802       C  0.93489386  0.32414330  0.15902289    -0.07400
C1803       C  0.93766529  0.34104513  0.12009379     0.13500
C1804       C  0.91829823  0.33641840  0.08587884    -0.20900
C1805       C  0.89654997  0.31542603  0.08947909    -0.07400
C1806       C  0.89005501  0.30407058  0.13195213     0.13500
C1807       C  0.86189948  0.28980921  0.14450519    -0.24200
H1808       H  0.90695149  0.29611528  0.19658371     0.14700
H1809       H  0.92081164  0.34895093  0.05575175     0.14800
C1810       C  0.96087311  0.36322737  0.11194762    -0.24200
H1811       H  0.85267659  0.30038427  0.17470214     0.05000
H1812       H  0.86619140  0.26600947  0.15145321     0.08200
H1813       H  0.84477436  0.29266967  0.11928433     0.08200
H1814       H  0.97685767  0.36471003  0.13862988     0.08200
H1815       H  0.95022183  0.38538418  0.10736223     0.08200
H1816       H  0.97321753  0.35750645  0.08135161     0.05000
C1817       C  0.58490089  0.31522223  0.33121586    -0.20800
C1818       C  0.55856491  0.30124335  0.33770008    -0.07400
C1819       C  0.55276106  0.28655893  0.37728079     0.13500
C1820       C  0.57312943  0.28761508  0.41063743    -0.20900
C1821       C  0.59918608  0.30327801  0.40606730    -0.07400
C1822       C  0.60578883  0.31587427  0.36435740     0.13500
C1823       C  0.63453742  0.32878086  0.35246925    -0.24200
H1824       H  0.58905943  0.32577305  0.29976737     0.14700
H1825       H  0.56866310  0.27580017  0.44092875     0.14800
C1826       C  0.52479324  0.27065828  0.38517496    -0.24200
H1827       H  0.63682588  0.33240830  0.31643835     0.05000
H1828       H  0.65274696  0.31334447  0.36206637     0.03000
H1829       H  0.63597360  0.35076049  0.36768323     0.08200
H1830       H  0.52341108  0.25216076  0.36172694     0.08200
H1831       H  0.50568035  0.28614937  0.38085315     0.08200
H1832       H  0.52359728  0.26127738  0.41895269     0.05000
C1833       C  0.58682312  0.30437166  0.15220543    -0.20800
C1834       C  0.55635908  0.30516749  0.14674188    -0.07400
C1835       C  0.54568913  0.30067181  0.10421962     0.13500
C1836       C  0.56509203  0.29833470  0.06807894    -0.20900
C1837       C  0.59595222  0.29903152  0.07197709    -0.07400
C1838       C  0.60669389  0.29994954  0.11612412     0.13500
C1839       C  0.63833069  0.29414272  0.12727612    -0.24200
H1840       H  0.59510711  0.30592939  0.18534156     0.14700
H1841       H  0.55544797  0.29448530  0.03649362     0.14800
C1842       C  0.51347743  0.29781871  0.09692956    -0.24200
H1843       H  0.64212789  0.29566011  0.16320247     0.05000
H1844       H  0.65245623  0.31021859  0.11145940     0.08200
H1845       H  0.64512200  0.27140226  0.11754405     0.08200
H1846       H  0.50152089  0.31775529  0.10913054     0.08200
H1847       H  0.50585379  0.27842690  0.11536002     0.08200
H1848       H  0.50819842  0.29495011  0.06168057     0.05000
C1849       C  0.92091332  0.16943582  0.14259994    -0.20800
C1850       C  0.93807034  0.19366710  0.15224225    -0.07400
C1851       C  0.93579189  0.21849636  0.12360590     0.13500
C1852       C  0.91649597  0.21868661  0.08794002    -0.20900
C1853       C  0.89843329  0.19520280  0.07950279    -0.07400
C1854       C  0.90216152  0.16945525  0.10584650     0.13500
C1855       C  0.88878763  0.14082605  0.09424946    -0.24200
H1856       H  0.92309410  0.14969603  0.16269169     0.14700
H1857       H  0.91706480  0.23667832  0.06448817     0.14800
C1858       C  0.95466760  0.24450156  0.12858598    -0.24200
H1859       H  0.90617225  0.12316393  0.09209406     0.05000
H1860       H  0.87791423  0.14163946  0.06191780     0.08200
H1861       H  0.87285632  0.13484148  0.12024989     0.08200
H1862       H  0.97798569  0.23701339  0.12787863     0.08200
H1863       H  0.94902771  0.25527268  0.16007726     0.08200
H1864       H  0.95119397  0.26119384  0.10208794     0.05000
C1865       C  0.94898445  0.20524322  0.38214489    -0.20800
C1866       C  0.94029272  0.18903905  0.34625700    -0.07400
C1867       C  0.91371115  0.17470621  0.34693388     0.13500
C1868       C  0.89580050  0.17746420  0.38423244    -0.20900
C1869       C  0.90416236  0.19397943  0.42094124    -0.07400
C1870       C  0.93175074  0.20787745  0.41978230     0.13500
C1871       C  0.94414464  0.22569315  0.45708230    -0.24200
H1872       H  0.96987827  0.21575750  0.38070646     0.14700
H1873       H  0.87515063  0.16699374  0.38338808     0.14800
C1874       C  0.90370831  0.15759061  0.30784832    -0.24200
H1875       H  0.96537512  0.23514812  0.44776271     0.05000
H1876       H  0.94882126  0.21180411  0.48630110     0.08200
H1877       H  0.92564701  0.24960319  0.95626482     0.08200
H1878       H  0.91913243  0.13864860  0.30140488     0.08200
H1879       H  0.90270993  0.17213150  0.27835612     0.08200
H1880       H  0.88167637  0.14874778  0.31339863     0.05000
C1881       C  0.56156095  0.16194744  0.37676684    -0.20800
C1882       C  0.56255914  0.18350040  0.34353301    -0.07400
C1883       C  0.58608277  0.20306640  0.34425038     0.13500
C1884       C  0.60494553  0.20319176  0.38087207    -0.20900
C1885       C  0.60129798  0.18432883  0.41722781    -0.07400
C1886       C  0.58123239  0.16134240  0.41225278     0.13500
C1887       C  0.58106344  0.13475588  0.44219429    -0.24200
H1888       H  0.54520204  0.14534897  0.37522951     0.14700
H1889       H  0.62269915  0.21809363  0.38040994     0.14800
C1890       C  0.59282643  0.22337331  0.30638090    -0.24200
H1891       H  0.58325487  0.11443314  0.42211194     0.05000
H1892       H  0.56168464  0.13297603  0.96209426     0.08200
H1893       H  0.59962388  0.13390510  0.46534285     0.08200
H1894       H  0.57900790  0.22013490  0.27729596     0.08200
H1895       H  0.61581021  0.21917865  0.29544039     0.08200
H1896       H  0.59017916  0.24660060  0.31718768     0.05000
C1897       C  0.55116767  0.20692449  0.12096329    -0.20800
C1898       C  0.55884503  0.18908464  0.15661662    -0.07400
C1899       C  0.58519839  0.17226388  0.15658093     0.13500
C1900       C  0.60322779  0.17312978  0.11939799    -0.20900
C1901       C  0.59556394  0.19066767  0.08252915    -0.07400
C1902       C  0.56869679  0.20785622  0.08356174     0.13500
C1903       C  0.55706806  0.22679846  0.04574989    -0.24200
H1904       H  0.53056882  0.21952966  0.12190402     0.14700
H1905       H  0.62358957  0.16053978  0.12073133     0.14800
C1906       C  0.59555413  0.15430433  0.19575213    -0.24200
H1907       H  0.53786692  0.24085728  0.05599665     0.05000
H1908       H  0.54911967  0.21380291  0.52024581     0.08200
H1909       H  0.57347551  0.24186431  0.03278387     0.08200
H1910       H  0.58123248  0.15715229  0.22511826     0.08200
H1911       H  0.61764247  0.16111780  0.20524589     0.08200
H1912       H  0.59671921  0.13061662  0.18706369     0.05000
C1913       C  0.78203079  0.43419398  0.08193109    -0.20800
C1914       C  0.79546067  0.40560060  0.08279292    -0.07400
C1915       C  0.80967023  0.39709019  0.12285551     0.13500
C1916       C  0.81323675  0.41810035  0.15674489    -0.20900
C1917       C  0.80093052  0.44689434  0.15436982    -0.07400
C1918       C  0.78425221  0.45448397  0.11675815     0.13500
C1919       C  0.76944779  0.48450516  0.11235408    -0.24200
H1920       H  0.76985708  0.44106845  0.05302591     0.14700
H1921       H  0.82493644  0.41150856  0.18624915     0.14800
C1922       C  0.82068847  0.36628142  0.13291344    -0.24200
H1923       H  0.75848174  0.48748125  0.08013104     0.05000
H1924       H  0.78575435  0.50185722  0.11535299     0.08200
H1925       H  0.75250166  0.48738033  0.13844380     0.08200
H1926       H  0.84488424  0.36561722  0.13531526     0.08200
H1927       H  0.81379858  0.35018601  0.10880102     0.08200
H1928       H  0.81146622  0.35911354  0.16499885     0.05000
C1929       C  0.82871562  0.44179596  0.37675411    -0.20800
C1930       C  0.80774027  0.44135403  0.34365576    -0.07400
C1931       C  0.78797482  0.41849398  0.34236537     0.13500
C1932       C  0.78663802  0.39934029  0.37818408    -0.20900
C1933       C  0.80445647  0.40278473  0.41524830    -0.07400
C1934       C  0.82829357  0.42173990  0.41155596     0.13500
C1935       C  0.85389627  0.42135378  0.44249096    -0.24200
H1936       H  0.84553286  0.45798931  0.37557717     0.14700
H1937       H  0.77165936  0.38157594  0.37670831     0.14800
C1938       C  0.76926807  0.41345902  0.30281513    -0.24200
H1939       H  0.87451320  0.41850647  0.42316148     0.05000
H1940       H  0.85389133  0.40303724  0.46660535     0.08200
H1941       H  0.85422760  0.44257635  0.46037836     0.08200
H1942       H  0.78336109  0.41044659  0.27311454     0.08200
H1943       H  0.75398495  0.43247147  0.29766632     0.08200
H1944       H  0.75606208  0.39358212  0.30682070     0.05000
C1945       C  0.83698472  0.06195500  0.38986138    -0.20800
C1946       C  0.81792699  0.06699752  0.35448960    -0.07400
C1947       C  0.80074378  0.09370833  0.35452202     0.13500
C1948       C  0.80131386  0.11294256  0.39107551    -0.20900
C1949       C  0.81680869  0.10553369  0.42965484    -0.07400
C1950       C  0.83741065  0.08119215  0.42634699     0.13500
C1951       C  0.86194022  0.07608071  0.45851534    -0.24200
H1952       H  0.85182433  0.04279163  0.38910797     0.14700
H1953       H  0.78901078  0.13361153  0.38937359     0.14800
C1954       C  0.78209061  0.10247519  0.31568060    -0.24200
H1955       H  0.88302365  0.07384494  0.44022829     0.05000
H1956       H  0.85864822  0.05546682  0.47744451     0.08200
H1957       H  0.86420168  0.09478210  0.48131171     0.08200
H1958       H  0.76469399  0.08649086  0.31117135     0.08200
H1959       H  0.79587598  0.10324555  0.28547000     0.08200
H1960       H  0.77118027  0.12451935  0.32019538     0.05000
C1961       C  0.83530250  0.08813530  0.09678995    -0.20800
C1962       C  0.81230368  0.10955028  0.09658328    -0.07400
C1963       C  0.79695185  0.11542625  0.13650999     0.13500
C1964       C  0.79925557  0.09475831  0.17045816    -0.20900
C1965       C  0.81872403  0.07039316  0.16710021    -0.07400
C1966       C  0.83855305  0.06814652  0.13135753     0.13500
C1967       C  0.86197812  0.04396020  0.12785321    -0.24200
H1968       H  0.85036074  0.08629130  0.06919651     0.14700
H1969       H  0.78575777  0.09767224  0.19976185     0.14800
C1970       C  0.77859568  0.14308518  0.14519714    -0.24200
H1971       H  0.87454559  0.04525703  0.09648917     0.05000
H1972       H  0.85193431  0.02209499  0.12919844     0.08200
H1973       H  0.87774933  0.04584007  0.15507419     0.08200
H1974       H  0.75534030  0.13752927  0.14960765     0.08200
H1975       H  0.78041196  0.15985060  0.11886128     0.08200
H1976       H  0.78612949  0.15348183  0.17583211     0.05000
C1977       C  0.69282566  0.41221710  0.34488182    -0.20800
C1978       C  0.68954558  0.44286312  0.35020610    -0.07400
C1979       C  0.69084456  0.45421571  0.39299526     0.13500
C1980       C  0.69361073  0.43488808  0.42926780    -0.20900
C1981       C  0.69418727  0.40365475  0.42530549    -0.07400
C1982       C  0.69579246  0.39258076  0.38134787     0.13500
C1983       C  0.70242830  0.36070248  0.37130771    -0.24200
H1984       H  0.69382745  0.40362992  0.31168551     0.14700
H1985       H  0.69621779  0.44493989  0.46097740     0.14800
C1986       C  0.69020991  0.48702527  0.40038799    -0.24200
H1987       H  0.70118223  0.35608227  0.33555160     0.05000
H1988       H  0.68671591  0.34669125  0.38813708     0.08200
H1989       H  0.72499098  0.35455851  0.38160846     0.08200
H1990       H  0.66965346  0.49723487  0.38729169     0.08200
H1991       H  0.70910834  0.49661408  0.38318857     0.08200
H1992       H  0.69150194  0.49260561  0.43581525     0.05000
C1993       C  0.69069839  0.40627726  0.16846239    -0.20800
C1994       C  0.67506252  0.43301051  0.16299993    -0.07400
C1995       C  0.65735997  0.43789087  0.12588529     0.13500
C1996       C  0.65901133  0.41732675  0.09211233    -0.20900
C1997       C  0.67912337  0.39317403  0.09388780    -0.07400
C1998       C  0.69178638  0.38546203  0.13499132     0.13500
C1999       C  0.70684122  0.35606182  0.14475786    -0.24200
H2000       H  0.70264887  0.40193545  0.19859131     0.14700
H2001       H  0.64566970  0.42117078  0.06335007     0.14800
C2002       C  0.63861521  0.46565674  0.12002920    -0.24200
H2003       H  0.69683420  0.34633684  0.17466254     0.05000
H2004       H  0.73039739  0.35909171  0.15090809     0.08200
H2005       H  0.70461897  0.33986480  0.11807476     0.08200
H2006       H  0.65238800  0.48523918  0.12132418     0.08200
H2007       H  0.62167275  0.46712350  0.14636706     0.08200
H2008       H  0.62723653  0.46613381  0.08792917     0.05000
C2009       C  0.72221516  0.05469377  0.36083070    -0.20800
C2010       C  0.70080354  0.06034188  0.32944638    -0.07400
C2011       C  0.68320135  0.08640886  0.33138343     0.13500
C2012       C  0.68578761  0.10502096  0.36735435    -0.20900
C2013       C  0.70476344  0.09769026  0.40222238    -0.07400
C2014       C  0.72446973  0.07261544  0.39749503     0.13500
C2015       C  0.74683300  0.06256113  0.43138083    -0.24200
H2016       H  0.73595260  0.03477499  0.35828586     0.14700
H2017       H  0.67228418  0.12490760  0.36777985     0.14800
C2018       C  0.66193266  0.09498012  0.29548822    -0.24200
H2019       H  0.76176216  0.04468685  0.41857698     0.05000
H2020       H  0.73594335  0.05326488  0.46059905     0.08200
H2021       H  0.76105425  0.08037522  0.44109562     0.08200
H2022       H  0.64389377  0.07939970  0.29454924     0.08200
H2023       H  0.67354921  0.09509721  0.26326143     0.08200
H2024       H  0.65181898  0.11731231  0.30073950     0.05000
C2025       C  0.67412338  0.09339833  0.09564464    -0.20800
C2026       C  0.69924562  0.09091059  0.06881016    -0.07400
C2027       C  0.72074576  0.06877750  0.07953878     0.13500
C2028       C  0.71682120  0.05057550  0.11659577    -0.20900
C2029       C  0.69153460  0.05253155  0.14327212    -0.07400
C2030       C  0.66986993  0.07460766  0.13238385     0.13500
C2031       C  0.64210099  0.07874279  0.15892933    -0.24200
H2032       H  0.65705560  0.10933124  0.08679374     0.14700
H2033       H  0.73374751  0.03418304  0.12409560     0.14800
C2034       C  0.74812839  0.06312557  0.05249947    -0.24200
H2035       H  0.62821201  0.09738000  0.14620723     0.05000
H2036       H  0.64731710  0.08350731  0.19366640     0.08200
H2037       H  0.62912955  0.05864686  0.15717050     0.08200
H2038       H  0.76757637  0.06544299  0.07352050     0.08200
H2039       H  0.75006440  0.07846665  0.02438893     0.08200
H2040       H  0.74841828  0.04033334  0.03948292     0.05000
O2041       O  0.70777513  0.46331758  0.79303694    -0.75000
O2042       O  0.71287624  0.01997366  0.69259110    -0.75000
O2043       O  0.71780091  0.02510078  0.78027511    -0.75000
O2044       O  0.70257169  0.45899358  0.70522165    -0.75100
O2045       O  0.65459075  0.46920349  0.71085091    -0.75000
O2046       O  0.66957158  0.03322474  0.78615887    -0.75000
O2047       O  0.66489227  0.02845376  0.69813435    -0.75000
O2048       O  0.65999166  0.47335257  0.79921708    -0.75000
Ni2049     Ni  0.71159886  0.48995781  0.74372146     1.25400
Ni2050     Ni  0.66191406  0.00180251  0.74823318     1.25400
C2051       C  0.68322319  0.45930518  0.81241110     0.87200
C2052       C  0.68946596  0.03338014  0.67905864     0.87200
C2053       C  0.69557276  0.03956169  0.79586301     0.87200
C2054       C  0.67620455  0.45406625  0.69506655     0.87400
C2055       C  0.70244768  0.11465923  0.94662694     0.86000
C2056       C  0.68033295  0.14059956  0.95265909    -0.54300
C2057       C  0.68336073  0.15613367  0.48816880     0.08900
C2058       C  0.70779770  0.14324210  0.51879206     0.19800
C2059       C  0.73174189  0.12873661  0.95269941    -0.55000
C2060       C  0.73603968  0.14400506  0.48977479     0.09000
C2061       C  0.69728597  0.09506152  0.98726316    -0.54500
C2062       C  0.70142318  0.11006036  0.52393664     0.09600
H2063       H  0.66288244  0.14674230  0.93036552     0.14100
H2064       H  0.70936977  0.15490708  0.55063070    -0.00200
H2065       H  0.74901056  0.12615053  0.92886304     0.14400
H2066       H  0.69318240  0.07353908  0.48257744     0.14200
C2067       C  0.68708783  0.37902227  0.54900417     0.86000
C2068       C  0.67133848  0.35124210  0.54032726    -0.54300
C2069       C  0.68075596  0.33491434  0.00818378     0.08900
C2070       C  0.70420505  0.35079851  0.97975951     0.19800
C2071       C  0.71989910  0.37074251  0.54860311    -0.55000
C2072       C  0.73009225  0.35608934  0.01189817     0.09000
C2073       C  0.68299465  0.39761186  0.50652077    -0.54500
C2074       C  0.69048963  0.38233017  0.96994048     0.09600
H2075       H  0.65179001  0.34586443  0.55846450     0.14100
H2076       H  0.71107694  0.33710716  0.95158697    -0.00200
H2077       H  0.73469332  0.37886739  0.57305726     0.14400
H2078       H  0.67808940  0.41948511  0.01062241     0.14200
O2079       O  0.83672110  0.03335469  0.71192021    -0.75000
O2080       O  0.83470151  0.47185922  0.79589535    -0.75000
O2081       O  0.83278255  0.47381527  0.70675160    -0.75000
O2082       O  0.83773921  0.03120233  0.80086274    -0.75100
O2083       O  0.78931285  0.03728133  0.80294290    -0.75000
O2084       O  0.78445902  0.48110336  0.70911621    -0.75000
O2085       O  0.78609967  0.47798566  0.79825011    -0.75000
O2086       O  0.78826095  0.04010142  0.71436125    -0.75000
Ni2087     Ni  0.83829743  0.50220783  0.75412741     1.25400
Ni2088     Ni  0.78639300  0.50930476  0.75630589     1.25400
C2089       C  0.81336834  0.04684399  0.69937142     0.87200
C2090       C  0.80982693  0.46486704  0.81079858     0.87200
C2091       C  0.80724957  0.46827149  0.69200614     0.87200
C2092       C  0.81448050  0.04401770  0.81709089     0.87400
C2093       C  0.80366088  0.12617050  0.55434331     0.86000
C2094       C  0.81854158  0.15513102  0.55049830    -0.54300
C2095       C  0.81414584  0.16779614  0.01011352     0.08900
C2096       C  0.79348713  0.15100982  0.97904008     0.19800
C2097       C  0.77165421  0.13379649  0.54644989    -0.55000
C2098       C  0.76564444  0.14489785  0.00812470     0.09000
C2099       C  0.81281005  0.10771345  0.51305865    -0.54500
C2100       C  0.80903010  0.12029660  0.97223820     0.09600
H2101       H  0.83263352  0.16297894  0.57598113     0.14100
H2102       H  0.78846149  0.16331080  0.94827061    -0.00200
H2103       H  0.75454864  0.12606737  0.56799403     0.14400
H2104       H  0.82018725  0.08344376  0.01356153     0.14200
C2105       C  0.79773974  0.38684453  0.95759855     0.86000
C2106       C  0.81692676  0.35914224  0.96035817    -0.54300
C2107       C  0.81270579  0.34279062  0.49839854     0.08900
C2108       C  0.78797335  0.35661408  0.52936101     0.19800
C2109       C  0.76638899  0.37668133  0.96192579    -0.55000
C2110       C  0.76095638  0.36029444  0.49862433     0.09000
C2111       C  0.80189359  0.40385604  0.00076330    -0.54500
C2112       C  0.79690945  0.38898409  0.53881245     0.09600
H2113       H  0.83432191  0.35402052  0.93665906     0.14100
H2114       H  0.78277642  0.34314241  0.55861099    -0.00200
H2115       H  0.74879600  0.38613971  0.94241153     0.14400
H2116       H  0.80729247  0.42672716  0.49919232     0.14200
O2117       O  0.53063016  0.16189939  0.70581151    -0.75000
O2118       O  0.97152002  0.16093733  0.79444394    -0.75000
O2119       O  0.97120470  0.16425327  0.70514682    -0.75000
O2120       O  0.53114973  0.15884926  0.79485749    -0.75100
O2121       O  0.53132617  0.20783193  0.79708193    -0.75000
O2122       O  0.97114353  0.21306952  0.70930923    -0.75000
O2123       O  0.97225975  0.21001823  0.79775921    -0.75000
O2124       O  0.52980726  0.21108105  0.70894477    -0.75000
Ni2125     Ni  0.00109190  0.15977414  0.74998991     1.25400
Ni2126     Ni  0.00110936  0.21228883  0.75346791     1.25400
C2127       C  0.53973205  0.18680317  0.69291959     0.87200
C2128       C  0.96250686  0.18548087  0.81085344     0.87200
C2129       C  0.96150254  0.18972024  0.69188222     0.87200
C2130       C  0.54157882  0.18261388  0.81009233     0.87400
C2131       C  0.61668281  0.19347206  0.54212450     0.86000
C2132       C  0.64488431  0.17421222  0.53900676    -0.54300
C2133       C  0.66075988  0.17779251  0.00447699     0.08900
C2134       C  0.64708423  0.20143692  0.97249305     0.19800
C2135       C  0.62739143  0.22462188  0.53767031    -0.55000
C2136       C  0.64222053  0.22944284  0.00218310     0.09000
C2137       C  0.60047702  0.18655623  0.49962605    -0.54500
C2138       C  0.61626263  0.18972184  0.96288168     0.09600
H2139       H  0.65135786  0.15715256  0.56203316     0.14100
H2140       H  0.66042808  0.20520133  0.94243046    -0.00200
H2141       H  0.62159496  0.24164049  0.56142051     0.14400
H2142       H  0.57910665  0.17697468  0.00069857     0.14200
C2143       C  0.88182291  0.19833205  0.95677358     0.86000
C2144       C  0.85275193  0.18249892  0.95868813    -0.54300
C2145       C  0.83783792  0.18957830  0.49809870     0.08900
C2146       C  0.85297520  0.21087995  0.53047024     0.19800
C2147       C  0.87245389  0.23070760  0.96115110    -0.55000
C2148       C  0.85931303  0.23816509  0.50127204     0.09000
C2149       C  0.89692168  0.18900207  0.99959097    -0.54500
C2150       C  0.88336744  0.19543749  0.53991537     0.09600
H2151       H  0.84644753  0.16570189  0.93597914     0.14100
H2152       H  0.84014494  0.21638155  0.56070195    -0.00200
H2153       H  0.88010260  0.24716461  0.93896440     0.14400
H2154       H  0.91941397  0.17662205  0.50354737     0.14200
O2155       O  0.96679753  0.29123356  0.79239865    -0.75000
O2156       O  0.52523116  0.28562502  0.69891971    -0.75000
O2157       O  0.52604306  0.28217807  0.78791626    -0.75000
O2158       O  0.96629062  0.29585549  0.70378896    -0.75100
O2159       O  0.97146079  0.34430872  0.70797975    -0.75000
O2160       O  0.53197535  0.33072221  0.79045123    -0.75000
O2161       O  0.53082540  0.33409503  0.70155080    -0.75000
O2162       O  0.97271180  0.33946508  0.79740358    -0.75000
Ni2163     Ni  0.99572688  0.28710311  0.74585904     1.25400
Ni2164     Ni  0.00182149  0.33896958  0.74971088     1.25400
C2165       C  0.96015813  0.31600727  0.81072185     0.87200
C2166       C  0.53755248  0.30875443  0.68460818     0.87200
C2167       C  0.53862021  0.30454347  0.80315091     0.87200
C2168       C  0.95918592  0.32216843  0.69183049     0.87400
C2169       C  0.61988524  0.30006506  0.94707504     0.86000
C2170       C  0.64652105  0.31851088  0.95362832    -0.54300
C2171       C  0.66165129  0.31304801  0.48755168     0.08900
C2172       C  0.64782158  0.28833197  0.51737128     0.19800
C2173       C  0.63165902  0.26838582  0.95031843    -0.55000
C2174       C  0.64482975  0.26145825  0.48595589     0.09000
C2175       C  0.60164424  0.30598309  0.98947680    -0.54500
C2176       C  0.61555232  0.29945201  0.52730483     0.09600
H2177       H  0.65156584  0.33777911  0.93477198     0.14100
H2178       H  0.66134481  0.28249887  0.54615907    -0.00200
H2179       H  0.62580644  0.25216593  0.92666074     0.14400
H2180       H  0.58053373  0.31774460  0.48732044     0.14200
C2181       C  0.88061571  0.30941575  0.54991543     0.86000
C2182       C  0.85335692  0.32853769  0.54501518    -0.54300
C2183       C  0.83648603  0.32148687  0.00897564     0.08900
C2184       C  0.84980150  0.29638859  0.97888043     0.19800
C2185       C  0.87075976  0.27766044  0.55017973    -0.55000
C2186       C  0.85407282  0.26933541  0.01095720     0.09000
C2187       C  0.89713172  0.31208664  0.50533529    -0.54500
C2188       C  0.88167024  0.30575607  0.96649895     0.09600
H2189       H  0.84996635  0.34868594  0.56328664     0.14100
H2190       H  0.83469815  0.29259284  0.95183834    -0.00200
H2191       H  0.87752952  0.26187107  0.57506459     0.14400
H2192       H  0.92017900  0.31427336  0.00376708     0.14200
C2193       C  0.91428720  0.29754889  0.84631086    -0.20800
C2194       C  0.93760995  0.31676997  0.84769550    -0.07400
C2195       C  0.93907375  0.33521647  0.88480557     0.13500
C2196       C  0.91897321  0.33223430  0.92019320    -0.20900
C2197       C  0.89686853  0.31102514  0.92124150    -0.07400
C2198       C  0.89333501  0.29523646  0.88086215     0.13500
C2199       C  0.86809568  0.27641931  0.86977320    -0.24200
H2200       H  0.91199790  0.28429201  0.81706217     0.14700
H2201       H  0.92105357  0.34670600  0.94805412     0.14800
C2202       C  0.96258752  0.35736884  0.88842016    -0.24200
H2203       H  0.85707108  0.28557002  0.84003800     0.05000
H2204       H  0.85133956  0.27510289  0.89523778     0.08200
H2205       H  0.87630644  0.25365366  0.86220781     0.08200
H2206       H  0.96013184  0.37408379  0.86180694     0.08200
H2207       H  0.98445123  0.34604162  0.88584684     0.08200
H2208       H  0.96138797  0.36919324  0.92029511     0.05000
C2209       C  0.91076173  0.31053749  0.66645553    -0.20800
C2210       C  0.93610432  0.32622196  0.65938994    -0.07400
C2211       C  0.93938462  0.34258246  0.62007453     0.13500
C2212       C  0.91984107  0.33820992  0.58601729    -0.20900
C2213       C  0.89729177  0.31815762  0.59041516    -0.07400
C2214       C  0.89025460  0.30791883  0.63331783     0.13500
C2215       C  0.86154270  0.29483805  0.64611451    -0.24200
H2216       H  0.90702387  0.30009760  0.69812314     0.14700
H2217       H  0.92278120  0.35028143  0.55559343     0.14800
C2218       C  0.96328792  0.36393304  0.61151128    -0.24200
H2219       H  0.85210421  0.30687042  0.67494715     0.05000
H2220       H  0.86515981  0.27129974  0.65532440     0.08200
H2221       H  0.84490778  0.29679027  0.62005293     0.08200
H2222       H  0.97922912  0.36520387  0.63831028     0.08200
H2223       H  0.95329818  0.38632925  0.60637931     0.08200
H2224       H  0.97553244  0.35754665  0.58111234     0.05000
C2225       C  0.58626960  0.31626926  0.83222256    -0.20800
C2226       C  0.56061298  0.30080047  0.83691991    -0.07400
C2227       C  0.55502400  0.28493056  0.87554140     0.13500
C2228       C  0.57505283  0.28579304  0.90939808    -0.20900
C2229       C  0.60045371  0.30262087  0.90659758    -0.07400
C2230       C  0.60665742  0.31716262  0.86611903     0.13500
C2231       C  0.63437145  0.33273618  0.85625287    -0.24200
H2232       H  0.59016149  0.32804102  0.80168199     0.14700
H2233       H  0.57071074  0.27308811  0.93891751     0.14800
C2234       C  0.52744824  0.26816210  0.88217619    -0.24200
H2235       H  0.63636505  0.33866694  0.82086544     0.05000
H2236       H  0.65351065  0.31798035  0.86387885     0.03000
H2237       H  0.63442983  0.35384372  0.87434529     0.08200
H2238       H  0.52665131  0.25017256  0.85780061     0.08200
H2239       H  0.50799928  0.28328454  0.87837031     0.08200
H2240       H  0.52628436  0.25798284  0.91543613     0.05000
C2241       C  0.58874859  0.30581389  0.65096174    -0.20800
C2242       C  0.55821987  0.30598928  0.64584989    -0.07400
C2243       C  0.54743550  0.30094080  0.60356153     0.13500
C2244       C  0.56669142  0.29867521  0.56730202    -0.20900
C2245       C  0.59752652  0.30000845  0.57077656    -0.07400
C2246       C  0.60850611  0.30150240  0.61466311     0.13500
C2247       C  0.64033627  0.29646461  0.62514019    -0.24200
H2248       H  0.59719222  0.30777239  0.68394057     0.14700
H2249       H  0.55697277  0.29437255  0.53590433     0.14800
C2250       C  0.51524833  0.29746472  0.59657231    -0.24200
H2251       H  0.64446972  0.29850872  0.66090825     0.05000
H2252       H  0.65392963  0.31259666  0.60839718     0.08200
H2253       H  0.64747039  0.27375795  0.61570254     0.08200
H2254       H  0.50295996  0.31712907  0.60901632     0.08200
H2255       H  0.50800930  0.27782233  0.61485322     0.08200
H2256       H  0.50988190  0.29465324  0.56134160     0.05000
C2257       C  0.92214585  0.16810177  0.64540708    -0.20800
C2258       C  0.93941053  0.19223265  0.65521245    -0.07400
C2259       C  0.93662096  0.21750275  0.62748942     0.13500
C2260       C  0.91754183  0.21774665  0.59153831    -0.20900
C2261       C  0.89962400  0.19423417  0.58264295    -0.07400
C2262       C  0.90302763  0.16847871  0.60905093     0.13500
C2263       C  0.88853008  0.14030519  0.59823329    -0.24200
H2264       H  0.92432817  0.14825889  0.66527329     0.14700
H2265       H  0.91800572  0.23592462  0.56842596     0.14800
C2266       C  0.95424258  0.24425869  0.63430649    -0.24200
H2267       H  0.90524505  0.12200221  0.59613765     0.05000
H2268       H  0.87741201  0.14131141  0.56610602     0.08200
H2269       H  0.87252845  0.13514472  0.62458528     0.08200
H2270       H  0.97788299  0.23799941  0.63365594     0.08200
H2271       H  0.94778703  0.25396320  0.66633386     0.08200
H2272       H  0.95016354  0.26144973  0.60870182     0.05000
C2273       C  0.94890242  0.20445503  0.88218346    -0.20800
C2274       C  0.94200091  0.18623501  0.84751523    -0.07400
C2275       C  0.91570315  0.17129765  0.84773995     0.13500
C2276       C  0.89638388  0.17540264  0.88328022    -0.20900
C2277       C  0.90294509  0.19405683  0.91848422    -0.07400
C2278       C  0.93004411  0.20891683  0.91765980     0.13500
C2279       C  0.94022025  0.22981444  0.95298123    -0.24200
H2280       H  0.96946835  0.21558486  0.88116366     0.14700
H2281       H  0.87617263  0.16408190  0.88253029     0.14800
C2282       C  0.90749223  0.15201171  0.80997096    -0.24200
H2283       H  0.96205883  0.23839622  0.94501698     0.05000
H2284       H  0.94276515  0.21880184  0.98525728     0.08200
H2285       H  0.92978984  0.24475299  0.46641842     0.08200
H2286       H  0.92349848  0.13317027  0.80683774     0.08200
H2287       H  0.90724941  0.16501889  0.77891419     0.08200
H2288       H  0.88550745  0.14291093  0.81484321     0.05000
C2289       C  0.56398427  0.15969602  0.87757319    -0.20800
C2290       C  0.56516275  0.18109989  0.84418686    -0.07400
C2291       C  0.58854620  0.20080515  0.84504159     0.13500
C2292       C  0.60696084  0.20139002  0.88210738    -0.20900
C2293       C  0.60303839  0.18270741  0.91857092    -0.07400
C2294       C  0.58327049  0.15946965  0.91346516     0.13500
C2295       C  0.58284773  0.13316505  0.94395098    -0.24200
H2296       H  0.54768954  0.14303634  0.87596557     0.14700
H2297       H  0.62442403  0.21663067  0.88208387     0.14800
C2298       C  0.59547327  0.22085789  0.80695321    -0.24200
H2299       H  0.58538088  0.11265308  0.92436172     0.05000
H2300       H  0.56012937  0.13449058  0.46091983     0.08200
H2301       H  0.60110541  0.13264484  0.96763563     0.08200
H2302       H  0.58195124  0.21718462  0.77766384     0.08200
H2303       H  0.61858701  0.21677653  0.79657274     0.08200
H2304       H  0.59247905  0.24417399  0.81724372     0.05000
C2305       C  0.55242981  0.20639729  0.62182840    -0.20800
C2306       C  0.56048617  0.18813429  0.65685876    -0.07400
C2307       C  0.58707117  0.17169030  0.65592330     0.13500
C2308       C  0.60477309  0.17315007  0.61834106    -0.20900
C2309       C  0.59659927  0.19098253  0.58194388    -0.07400
C2310       C  0.56966436  0.20798833  0.58412975     0.13500
C2311       C  0.55756055  0.22729181  0.54709693    -0.24200
H2312       H  0.53172957  0.21881286  0.62345853     0.14700
H2313       H  0.62526383  0.16075285  0.61897537     0.14800
C2314       C  0.59800169  0.15357485  0.69459491    -0.24200
H2315       H  0.53862044  0.24136698  0.55827409     0.05000
H2316       H  0.54915595  0.21304013  0.01881404     0.08200
H2317       H  0.57387864  0.24231546  0.53378748     0.08200
H2318       H  0.58387658  0.15600663  0.72424909     0.08200
H2319       H  0.62006403  0.16062615  0.70380069     0.08200
H2320       H  0.59940286  0.12996488  0.68554031     0.05000
C2321       C  0.78479536  0.43548243  0.58125209    -0.20800
C2322       C  0.79660537  0.40622282  0.58245497    -0.07400
C2323       C  0.81003613  0.39706916  0.62294235     0.13500
C2324       C  0.81427266  0.41787158  0.65695005    -0.20900
C2325       C  0.80356459  0.44722393  0.65417849    -0.07400
C2326       C  0.78785744  0.45564730  0.61602244     0.13500
C2327       C  0.77476033  0.48636505  0.61123445    -0.24200
H2328       H  0.77308115  0.44296322  0.55223805     0.14700
H2329       H  0.82520061  0.41071631  0.68685201     0.14800
C2330       C  0.81963447  0.36589191  0.63353739    -0.24200
H2331       H  0.76421520  0.48990266  0.57880347     0.05000
H2332       H  0.79198256  0.50275867  0.61457939     0.08200
H2333       H  0.75778821  0.49007857  0.63705177     0.08200
H2334       H  0.84371608  0.36438821  0.63758959     0.08200
H2335       H  0.81315543  0.35000065  0.60893904     0.08200
H2336       H  0.80921981  0.35906429  0.66495111     0.05000
C2337       C  0.82971087  0.44233448  0.87772612    -0.20800
C2338       C  0.80897034  0.44207115  0.84430080    -0.07400
C2339       C  0.78887712  0.41957007  0.84281207     0.13500
C2340       C  0.78669903  0.40084348  0.87897647    -0.20900
C2341       C  0.80436956  0.40405709  0.91619205    -0.07400
C2342       C  0.82870428  0.42240183  0.91262432     0.13500
C2343       C  0.85429931  0.42139011  0.94360333    -0.24200
H2344       H  0.84685547  0.45817796  0.87661463     0.14700
H2345       H  0.77131807  0.38350434  0.87762767     0.14800
C2346       C  0.77089293  0.41440053  0.80254422    -0.24200
H2347       H  0.87486224  0.41798206  0.92429123     0.05000
H2348       H  0.85386458  0.40315223  0.96780359     0.08200
H2349       H  0.85516562  0.44259856  0.96141333     0.08200
H2350       H  0.78549521  0.41168766  0.77333957     0.08200
H2351       H  0.75536095  0.43323602  0.79695312     0.08200
H2352       H  0.75821095  0.39414875  0.80584967     0.05000
C2353       C  0.83636143  0.06198952  0.88746242    -0.20800
C2354       C  0.81634763  0.06659410  0.85316798    -0.07400
C2355       C  0.79877393  0.09304115  0.85388226     0.13500
C2356       C  0.79949028  0.11207876  0.89058560    -0.20900
C2357       C  0.81588957  0.10487136  0.92835549    -0.07400
C2358       C  0.83713394  0.08121833  0.92389306     0.13500
C2359       C  0.86255308  0.07694045  0.95469204    -0.24200
H2360       H  0.85165058  0.04320427  0.88591129     0.14700
H2361       H  0.78669892  0.13247785  0.88956624     0.14800
C2362       C  0.77972983  0.10185905  0.81548133    -0.24200
H2363       H  0.88324000  0.07565445  0.93527905     0.05000
H2364       H  0.86052234  0.05609676  0.97354920     0.08200
H2365       H  0.86458641  0.09562535  0.97759557     0.08200
H2366       H  0.76250921  0.08572028  0.81089710     0.08200
H2367       H  0.79329054  0.10303308  0.78507984     0.08200
H2368       H  0.76859256  0.12374319  0.82051698     0.05000
C2369       C  0.83361517  0.08956310  0.59827537    -0.20800
C2370       C  0.81050705  0.11080785  0.59756407    -0.07400
C2371       C  0.79396173  0.11575074  0.63667162     0.13500
C2372       C  0.79555052  0.09446533  0.66987447    -0.20900
C2373       C  0.81532050  0.07029765  0.66670217    -0.07400
C2374       C  0.83595959  0.06878609  0.63189302     0.13500
C2375       C  0.85931982  0.04454395  0.62810635    -0.24200
H2376       H  0.84929621  0.08829068  0.57140256     0.14700
H2377       H  0.78138270  0.09684233  0.69855624     0.14800
C2378       C  0.77534305  0.14321705  0.64544855    -0.24200
H2379       H  0.87235058  0.04636226  0.59724313     0.05000
H2380       H  0.84913446  0.02273817  0.62806187     0.08200
H2381       H  0.87473215  0.04577984  0.65590078     0.08200
H2382       H  0.75198374  0.13761925  0.64785201     0.08200
H2383       H  0.77808230  0.16052753  0.62011358     0.08200
H2384       H  0.78187665  0.15292562  0.67714431     0.05000
C2385       C  0.69710125  0.41068051  0.84804845    -0.20800
C2386       C  0.68206252  0.43816897  0.85062758    -0.07400
C2387       C  0.66644699  0.44485388  0.88968445     0.13500
C2388       C  0.66804685  0.42511847  0.92563407    -0.20900
C2389       C  0.68591129  0.39878562  0.92564132    -0.07400
C2390       C  0.69851224  0.39054173  0.88399295     0.13500
C2391       C  0.71161425  0.36028453  0.87471775    -0.24200
H2392       H  0.70726838  0.40461425  0.81693402     0.14700
H2393       H  0.65465115  0.43079126  0.95394389     0.14800
C2394       C  0.64876342  0.47337858  0.89446996    -0.24200
H2395       H  0.71784214  0.35761683  0.83952024     0.05000
H2396       H  0.69532650  0.34353366  0.88217242     0.08200
H2397       H  0.73167440  0.35568829  0.89360155     0.08200
H2398       H  0.63053287  0.47410481  0.87069447     0.08200
H2399       H  0.66294241  0.49232409  0.88839904     0.08200
H2400       H  0.63908256  0.47587164  0.92795037     0.05000
C2401       C  0.68559693  0.40405791  0.66791705    -0.20800
C2402       C  0.67112213  0.43146242  0.66288910    -0.07400
C2403       C  0.65508521  0.43800546  0.62463027     0.13500
C2404       C  0.65714800  0.41826381  0.58981312    -0.20900
C2405       C  0.67654596  0.39350421  0.59144463    -0.07400
C2406       C  0.68749234  0.38426509  0.63306282     0.13500
C2407       C  0.70172109  0.35434984  0.64206035    -0.24200
H2408       H  0.69632852  0.39852177  0.69869072     0.14700
H2409       H  0.64442678  0.42315170  0.56080259     0.14800
C2410       C  0.63781472  0.46670692  0.61884652    -0.24200
H2411       H  0.69015379  0.34376305  0.66991047     0.05000
H2412       H  0.72491810  0.35680983  0.65115385     0.08200
H2413       H  0.70082851  0.33912392  0.61391771     0.08200
H2414       H  0.65240050  0.48552316  0.62239435     0.08200
H2415       H  0.62002270  0.46837977  0.64386312     0.08200
H2416       H  0.62765583  0.46849341  0.58587471     0.05000
C2417       C  0.72086050  0.05544653  0.86045670    -0.20800
C2418       C  0.69984824  0.06197571  0.82881310    -0.07400
C2419       C  0.68157711  0.08747034  0.83247872     0.13500
C2420       C  0.68357898  0.10489308  0.86987777    -0.20900
C2421       C  0.70262128  0.09685911  0.90444459    -0.07400
C2422       C  0.72243971  0.07201080  0.89855861     0.13500
C2423       C  0.74454330  0.06100550  0.93227108    -0.24200
H2424       H  0.73490830  0.03582754  0.85674766     0.14700
H2425       H  0.66965560  0.12444988  0.87144931     0.14800
C2426       C  0.66020801  0.09666106  0.79698554    -0.24200
H2427       H  0.75904792  0.04289958  0.91913225     0.05000
H2428       H  0.73341041  0.05164812  0.96122804     0.08200
H2429       H  0.75925662  0.07832019  0.94242111     0.08200
H2430       H  0.64262127  0.08063771  0.79472683     0.08200
H2431       H  0.67183750  0.09811585  0.76485887     0.08200
H2432       H  0.64949487  0.11853595  0.80377905     0.05000
C2433       C  0.67399767  0.09447656  0.59176943    -0.20800
C2434       C  0.69971572  0.09269008  0.56614341    -0.07400
C2435       C  0.72152231  0.07109940  0.57779966     0.13500
C2436       C  0.71749309  0.05305831  0.61492930    -0.20900
C2437       C  0.69169995  0.05442854  0.64054467    -0.07400
C2438       C  0.66958712  0.07569626  0.62846423     0.13500
C2439       C  0.64118954  0.07890707  0.65363801    -0.24200
H2440       H  0.65661093  0.10975739  0.58192754     0.14700
H2441       H  0.73477218  0.03717720  0.62324341     0.14800
C2442       C  0.74926330  0.06565023  0.55154490    -0.24200
H2443       H  0.62682135  0.09679314  0.63979272     0.05000
H2444       H  0.64547701  0.08426231  0.68851148     0.08200
H2445       H  0.62916309  0.05820439  0.65175003     0.08200
H2446       H  0.76840157  0.06840141  0.57300832     0.08200
H2447       H  0.75126634  0.08074932  0.52316647     0.08200
H2448       H  0.75006468  0.04272393  0.53901567     0.05000
O2449       O  0.70863857  0.96317594  0.29332566    -0.75000
O2450       O  0.71351919  0.52078827  0.19167013    -0.75000
O2451       O  0.71919483  0.52641816  0.27915987    -0.75000
O2452       O  0.70313276  0.95879923  0.20570806    -0.75100
O2453       O  0.65511064  0.96861335  0.21166801    -0.75000
O2454       O  0.67099340  0.53434771  0.28602178    -0.75000
O2455       O  0.66559474  0.52938374  0.19810082    -0.75000
O2456       O  0.66082200  0.97290137  0.29981243    -0.75000
Ni2457     Ni  0.71209422  0.98986402  0.24396152     1.25400
Ni2458     Ni  0.66303112  0.50284487  0.24841858     1.25400
C2459       C  0.68415993  0.95893393  0.31278623     0.87200
C2460       C  0.69001661  0.53414951  0.17846303     0.87200
C2461       C  0.69705398  0.54081614  0.29515428     0.87200
C2462       C  0.67677180  0.95349172  0.19601401     0.87400
C2463       C  0.70331614  0.61507572  0.44685210     0.86000
C2464       C  0.68107851  0.64088834  0.45280196    -0.54300
C2465       C  0.68361292  0.65653293  0.98763718     0.08900
C2466       C  0.70803951  0.64357367  0.01809558     0.19800
C2467       C  0.73255063  0.62926554  0.45305786    -0.55000
C2468       C  0.73624918  0.64441640  0.98906639     0.09000
C2469       C  0.69817139  0.59547146  0.48747970    -0.54500
C2470       C  0.70164791  0.61041519  0.02300395     0.09600
H2471       H  0.66352160  0.64682343  0.43059236     0.14100
H2472       H  0.70961217  0.65515530  0.05000475    -0.00200
H2473       H  0.74987912  0.62667085  0.42933348     0.14400
H2474       H  0.69344919  0.57398525  0.98145982     0.14200
C2475       C  0.68845042  0.87808074  0.05129889     0.86000
C2476       C  0.67279901  0.85036104  0.04228794    -0.54300
C2477       C  0.68219410  0.83403889  0.50827989     0.08900
C2478       C  0.70551981  0.85009213  0.47974851     0.19800
C2479       C  0.72126489  0.87012116  0.05010354    -0.55000
C2480       C  0.73132276  0.85575066  0.51190060     0.09000
C2481       C  0.68386710  0.89711710  0.00935875    -0.54500
C2482       C  0.69155331  0.88147522  0.46975721     0.09600
H2483       H  0.65317011  0.84500217  0.06020449     0.14100
H2484       H  0.71253064  0.83641974  0.45160345    -0.00200
H2485       H  0.73622569  0.87825894  0.07430573     0.14400
H2486       H  0.67902013  0.91865204  0.51018192     0.14200
O2487       O  0.83629520  0.53324601  0.21201282    -0.75000
O2488       O  0.83584812  0.97259964  0.29653716    -0.75000
O2489       O  0.83427386  0.97448232  0.20735197    -0.75000
O2490       O  0.83761333  0.53088989  0.30101483    -0.75100
O2491       O  0.78920032  0.53700294  0.30339748    -0.75000
O2492       O  0.78589703  0.98128277  0.20949888    -0.75000
O2493       O  0.78721016  0.97834527  0.29857241    -0.75000
O2494       O  0.78784321  0.54003120  0.21475954    -0.75000
Ni2495     Ni  0.83932825  0.00297931  0.25475454     1.25400
Ni2496     Ni  0.78737653  0.00959305  0.25656529     1.25400
C2497       C  0.81290573  0.54670501  0.19952079     0.87200
C2498       C  0.81098780  0.96541576  0.31127847     0.87200
C2499       C  0.80883511  0.96864868  0.19252872     0.87200
C2500       C  0.81441056  0.54370743  0.31743657     0.87400
C2501       C  0.80357963  0.62583006  0.05381793     0.86000
C2502       C  0.81886687  0.65457294  0.04990022    -0.54300
C2503       C  0.81533309  0.66775928  0.51040620     0.08900
C2504       C  0.79430455  0.65132200  0.47936125     0.19800
C2505       C  0.77166624  0.63391868  0.04594249    -0.55000
C2506       C  0.76635492  0.64568142  0.50855353     0.09000
C2507       C  0.81242866  0.60724416  0.01252911    -0.54500
C2508       C  0.80932366  0.62034686  0.47249726     0.09600
H2509       H  0.83297899  0.66233127  0.07541437     0.14100
H2510       H  0.78945852  0.66367031  0.44856544    -0.00200
H2511       H  0.75447335  0.62643937  0.06754503     0.14400
H2512       H  0.81979674  0.58332952  0.51377825     0.14200
C2513       C  0.79881622  0.88715969  0.45775847     0.86000
C2514       C  0.81801744  0.85946327  0.46030248    -0.54300
C2515       C  0.81374055  0.84320750  0.99849217     0.08900
C2516       C  0.78916365  0.85686287  0.02986467     0.19800
C2517       C  0.76745720  0.87694806  0.46206160    -0.55000
C2518       C  0.76198444  0.86061337  0.99940812     0.09000
C2519       C  0.80297729  0.90403578  0.50100502    -0.54500
C2520       C  0.79810038  0.88923692  0.03955802     0.09600
H2521       H  0.83542704  0.85442960  0.43658743     0.14100
H2522       H  0.78419519  0.84326641  0.05909080    -0.00200
H2523       H  0.74984220  0.88635082  0.44253599     0.14400
H2524       H  0.80816301  0.92718127  0.00023139     0.14200
O2525       O  0.53083650  0.66174073  0.20491074    -0.75000
O2526       O  0.97198419  0.66085722  0.29434619    -0.75000
O2527       O  0.97120187  0.66407526  0.20507881    -0.75000
O2528       O  0.53172850  0.65862080  0.29399287    -0.75100
O2529       O  0.53174571  0.70760489  0.29641447    -0.75000
O2530       O  0.97120768  0.71289262  0.20910775    -0.75000
O2531       O  0.97274745  0.70994865  0.29746774    -0.75000
O2532       O  0.53003358  0.71092421  0.20820123    -0.75000
Ni2533     Ni  0.00130954  0.65963416  0.24958788     1.25400
Ni2534     Ni  0.00137269  0.71215576  0.25295020     1.25400
C2535       C  0.53985758  0.68666859  0.19200205     0.87200
C2536       C  0.96306543  0.68543313  0.31073738     0.87200
C2537       C  0.96146758  0.68953361  0.19184000     0.87200
C2538       C  0.54207681  0.68239449  0.30934521     0.87400
C2539       C  0.61689696  0.69370657  0.04153593     0.86000
C2540       C  0.64510476  0.67443481  0.03850306    -0.54300
C2541       C  0.66100541  0.67779810  0.50439420     0.08900
C2542       C  0.64722560  0.70128973  0.47230532     0.19800
C2543       C  0.62761211  0.72486051  0.03754556    -0.55000
C2544       C  0.64217109  0.72922919  0.50197922     0.09000
C2545       C  0.60092886  0.68702008  0.99879631    -0.54500
C2546       C  0.61648951  0.68938832  0.46253602     0.09600
H2547       H  0.65140230  0.65719213  0.06130259     0.14100
H2548       H  0.66059325  0.70514794  0.44229560    -0.00200
H2549       H  0.62162617  0.74178335  0.06134791     0.14400
H2550       H  0.57928189  0.67644854  0.50012413     0.14200
C2551       C  0.88277930  0.69864665  0.45684214     0.86000
C2552       C  0.85383945  0.68260562  0.45902234    -0.54300
C2553       C  0.83805522  0.68929917  0.99761229     0.08900
C2554       C  0.85299673  0.71070209  0.03005222     0.19800
C2555       C  0.87322197  0.73095613  0.46123067    -0.55000
C2556       C  0.85945807  0.73796651  0.00076136     0.09000
C2557       C  0.89812356  0.68947678  0.49952575    -0.54500
C2558       C  0.88333622  0.69523911  0.03992062     0.09600
H2559       H  0.84753023  0.66575145  0.43641266     0.14100
H2560       H  0.83999651  0.71624478  0.06010745    -0.00200
H2561       H  0.88065012  0.74742233  0.43890960     0.14400
H2562       H  0.91951753  0.67629553  0.00404921     0.14200
O2563       O  0.96760631  0.79139548  0.29214139    -0.75000
O2564       O  0.52654442  0.78565516  0.20019549    -0.75000
O2565       O  0.52660323  0.78282252  0.28916277    -0.75000
O2566       O  0.96769686  0.79542316  0.20342929    -0.75100
O2567       O  0.97237782  0.84397964  0.20710657    -0.75000
O2568       O  0.53218973  0.83143786  0.29112960    -0.75000
O2569       O  0.53173684  0.83420825  0.20215989    -0.75000
O2570       O  0.97310923  0.83972122  0.29662752    -0.75000
Ni2571     Ni  0.99686377  0.78724117  0.24609509     1.25400
Ni2572     Ni  0.00248744  0.83920685  0.24932681     1.25400
C2573       C  0.96071752  0.81621648  0.31012953     0.87200
C2574       C  0.53873152  0.80879467  0.18567436     0.87200
C2575       C  0.53891123  0.80537781  0.30426855     0.87200
C2576       C  0.96044248  0.82161132  0.19104941     0.87400
C2577       C  0.62077632  0.80029505  0.44732964     0.86000
C2578       C  0.64783984  0.81812068  0.45372224    -0.54300
C2579       C  0.66240575  0.81316464  0.98860621     0.08900
C2580       C  0.64853043  0.78839533  0.01809722     0.19800
C2581       C  0.63198484  0.76841192  0.45043443    -0.55000
C2582       C  0.64545768  0.76177085  0.98637672     0.09000
C2583       C  0.60273372  0.80652740  0.48978575    -0.54500
C2584       C  0.61634667  0.79955339  0.02819960     0.09600
H2585       H  0.65339489  0.83716019  0.43475196     0.14100
H2586       H  0.66202642  0.78236241  0.04683993    -0.00200
H2587       H  0.62581797  0.75234953  0.42677688     0.14400
H2588       H  0.58116651  0.81790422  0.98855521     0.14200
C2589       C  0.88144082  0.80887714  0.04941809     0.86000
C2590       C  0.85443390  0.82837460  0.04464749    -0.54300
C2591       C  0.83755500  0.82174116  0.50872732     0.08900
C2592       C  0.85077992  0.79653277  0.47879965     0.19800
C2593       C  0.87109478  0.77730946  0.04963402    -0.55000
C2594       C  0.85502624  0.76958734  0.51108414     0.09000
C2595       C  0.89797487  0.81135954  0.00484787    -0.54500
C2596       C  0.88263438  0.80583600  0.46625522     0.09600
H2597       H  0.85123126  0.84843190  0.06318932     0.14100
H2598       H  0.83564186  0.79266557  0.45182773    -0.00200
H2599       H  0.87755861  0.76142878  0.07453183     0.14400
H2600       H  0.92119172  0.81454768  0.50338709     0.14200
C2601       C  0.91490919  0.79767505  0.34582722    -0.20800
C2602       C  0.93817336  0.81696957  0.34707797    -0.07400
C2603       C  0.93970669  0.83540203  0.38418115     0.13500
C2604       C  0.91971115  0.83238054  0.41967699    -0.20900
C2605       C  0.89767330  0.81111330  0.42087665    -0.07400
C2606       C  0.89405541  0.79531281  0.38050989     0.13500
C2607       C  0.86882747  0.77644024  0.36955689    -0.24200
H2608       H  0.91259584  0.78439983  0.31660187     0.14700
H2609       H  0.92183839  0.84685975  0.44751636     0.14800
C2610       C  0.96323537  0.85754578  0.38770479    -0.24200
H2611       H  0.85779854  0.78548532  0.33975791     0.05000
H2612       H  0.85205013  0.77522854  0.39501643     0.08200
H2613       H  0.87705161  0.75365504  0.36214715     0.08200
H2614       H  0.96071926  0.87428510  0.36113682     0.08200
H2615       H  0.98509093  0.84621405  0.38499116     0.08200
H2616       H  0.96212109  0.86933850  0.41960770     0.05000
C2617       C  0.91218148  0.80958539  0.16562433    -0.20800
C2618       C  0.93748329  0.82529353  0.15839013    -0.07400
C2619       C  0.94069143  0.84162040  0.11903619     0.13500
C2620       C  0.92094480  0.83738963  0.08521628    -0.20900
C2621       C  0.89835952  0.81738290  0.08978465    -0.07400
C2622       C  0.89153760  0.80701999  0.13268962     0.13500
C2623       C  0.86285589  0.79400067  0.14578155    -0.24200
H2624       H  0.90853384  0.79916265  0.19733076     0.14700
H2625       H  0.92376935  0.84951062  0.05480476     0.14800
C2626       C  0.96474645  0.86275312  0.11017061    -0.24200
H2627       H  0.85369352  0.80587479  0.17494268     0.05000
H2628       H  0.86642770  0.77038662  0.15459112     0.08200
H2629       H  0.84602443  0.79626328  0.12003803     0.08200
H2630       H  0.98082715  0.86389046  0.13680974     0.08200
H2631       H  0.95493600  0.88522647  0.10506235     0.08200
H2632       H  0.97682097  0.85619811  0.07969193     0.05000
C2633       C  0.58627215  0.81777271  0.33350939    -0.20800
C2634       C  0.56083849  0.80193845  0.33812364    -0.07400
C2635       C  0.55555357  0.78567665  0.37646863     0.13500
C2636       C  0.57576185  0.78636496  0.41005691    -0.20900
C2637       C  0.60114168  0.80323143  0.40716038    -0.07400
C2638       C  0.60686966  0.81846698  0.36710927     0.13500
C2639       C  0.63420241  0.83472311  0.35741763    -0.24200
H2640       H  0.58986511  0.82990965  0.30320278     0.14700
H2641       H  0.57163388  0.77341490  0.43941751     0.14800
C2642       C  0.52818112  0.76856618  0.38306081    -0.24200
H2643       H  0.63560840  0.84173686  0.32240717     0.05000
H2644       H  0.65363483  0.82001955  0.36347647     0.03000
H2645       H  0.63423458  0.85527325  0.37689631     0.08200
H2646       H  0.52748836  0.75070281  0.35844437     0.08200
H2647       H  0.50856948  0.78351366  0.37962334     0.08200
H2648       H  0.52724008  0.75815558  0.41618199     0.05000
C2649       C  0.58989827  0.80601010  0.15195217    -0.20800
C2650       C  0.55937678  0.80593060  0.14695873    -0.07400
C2651       C  0.54855415  0.80037702  0.10485119     0.13500
C2652       C  0.56771660  0.79821376  0.06849485    -0.20900
C2653       C  0.59850961  0.79990783  0.07179884    -0.07400
C2654       C  0.60959890  0.80150696  0.11563984     0.13500
C2655       C  0.64139313  0.79607067  0.12618804    -0.24200
H2656       H  0.59837906  0.80819097  0.18487264     0.14700
H2657       H  0.55799768  0.79376755  0.03714076     0.14800
C2658       C  0.51643828  0.79622185  0.09818547    -0.24200
H2659       H  0.64547706  0.79786612  0.16200607     0.05000
H2660       H  0.65530146  0.81207118  0.10982486     0.08200
H2661       H  0.64828615  0.77333689  0.11653591     0.08200
H2662       H  0.50380703  0.81572295  0.11043495     0.08200
H2663       H  0.50965635  0.77654326  0.11681899     0.08200
H2664       H  0.51101300  0.79306565  0.06305279     0.05000
C2665       C  0.92210044  0.66783988  0.14540882    -0.20800
C2666       C  0.93926734  0.69203345  0.15531805    -0.07400
C2667       C  0.93637792  0.71733824  0.12769596     0.13500
C2668       C  0.91731423  0.71755725  0.09175018    -0.20900
C2669       C  0.89943624  0.69402844  0.08278751    -0.07400
C2670       C  0.90298936  0.66819884  0.10902982     0.13500
C2671       C  0.88878860  0.63990519  0.09788882    -0.24200
H2672       H  0.92441175  0.64794594  0.16513618     0.14700
H2673       H  0.91788245  0.73568092  0.06856727     0.14800
C2674       C  0.95394924  0.74413627  0.13450893    -0.24200
H2675       H  0.90568302  0.62177024  0.09574574     0.05000
H2676       H  0.87776990  0.64090665  0.06568358     0.08200
H2677       H  0.87276453  0.63446969  0.12407519     0.08200
H2678       H  0.97759885  0.73794301  0.13367122     0.08200
H2679       H  0.94757217  0.75378542  0.16661795     0.08200
H2680       H  0.94977195  0.76135633  0.10898094     0.05000
C2681       C  0.94962531  0.70470902  0.38188983    -0.20800
C2682       C  0.94269775  0.68627858  0.34748702    -0.07400
C2683       C  0.91640226  0.67136266  0.34788076     0.13500
C2684       C  0.89714424  0.67560950  0.38341806    -0.20900
C2685       C  0.90373758  0.69443684  0.41839402    -0.07400
C2686       C  0.93076410  0.70941221  0.41727572     0.13500
C2687       C  0.94082928  0.73071338  0.45212689    -0.24200
H2688       H  0.97016868  0.71587608  0.38066260     0.14700
H2689       H  0.87695434  0.66425636  0.38281410     0.14800
C2690       C  0.90812096  0.65196130  0.31027833    -0.24200
H2691       H  0.96272028  0.73915924  0.44413187     0.05000
H2692       H  0.94318130  0.72012716  0.48474388     0.08200
H2693       H  0.93016873  0.74399472  0.96782209     0.08200
H2694       H  0.92409584  0.63308653  0.30724075     0.08200
H2695       H  0.90785896  0.66486695  0.27912687     0.08200
H2696       H  0.88612689  0.64290770  0.31527307     0.05000
C2697       C  0.56473519  0.65920424  0.37653258    -0.20800
C2698       C  0.56564170  0.68090403  0.34351101    -0.07400
C2699       C  0.58869622  0.70097791  0.34487287     0.13500
C2700       C  0.60707012  0.70148832  0.38198137    -0.20900
C2701       C  0.60337937  0.68247330  0.41810406    -0.07400
C2702       C  0.58392780  0.65901543  0.41256862     0.13500
C2703       C  0.58375933  0.63255527  0.44276610    -0.24200
H2704       H  0.54869687  0.64231409  0.37457213     0.14700
H2705       H  0.62432482  0.71693887  0.38225769     0.14800
C2706       C  0.59532065  0.72157960  0.30731503    -0.24200
H2707       H  0.58668708  0.61216413  0.42297721     0.05000
H2708       H  0.56180682  0.63442915  0.95983822     0.08200
H2709       H  0.60189134  0.63221197  0.46666210     0.08200
H2710       H  0.58202954  0.71790729  0.27778869     0.08200
H2711       H  0.61853470  0.71811490  0.29706208     0.08200
H2712       H  0.59178367  0.74473251  0.31812770     0.05000
C2713       C  0.55228664  0.70612051  0.12071080    -0.20800
C2714       C  0.56048990  0.68802329  0.15585593    -0.07400
C2715       C  0.58718341  0.67179038  0.15507082     0.13500
C2716       C  0.60489688  0.67330427  0.11754960    -0.20900
C2717       C  0.59664619  0.69101523  0.08108318    -0.07400
C2718       C  0.56958235  0.70781666  0.08308797     0.13500
C2719       C  0.55743616  0.72701039  0.04597121    -0.24200
H2720       H  0.53148531  0.71835768  0.12223954     0.14700
H2721       H  0.62550741  0.66113219  0.11835902     0.14800
C2722       C  0.59823662  0.65387709  0.19387014    -0.24200
H2723       H  0.53860719  0.74121752  0.05718604     0.05000
H2724       H  0.54977707  0.71315255  0.51819001     0.08200
H2725       H  0.57379766  0.74188938  0.03235932     0.08200
H2726       H  0.58408962  0.65627218  0.22350498     0.08200
H2727       H  0.62022890  0.66114232  0.20304361     0.08200
H2728       H  0.59983267  0.63024651  0.18496849     0.05000
C2729       C  0.78608536  0.93566771  0.08215136    -0.20800
C2730       C  0.79794835  0.90642624  0.08325467    -0.07400
C2731       C  0.81175074  0.89736938  0.12349811     0.13500
C2732       C  0.81613825  0.91822442  0.15741521    -0.20900
C2733       C  0.80534240  0.94756629  0.15469251    -0.07400
C2734       C  0.78948065  0.95593556  0.11666824     0.13500
C2735       C  0.77665657  0.98675916  0.11166281    -0.24200
H2736       H  0.77413954  0.94309343  0.05332275     0.14700
H2737       H  0.82723577  0.91111780  0.18719858     0.14800
C2738       C  0.82153775  0.86621479  0.13388025    -0.24200
H2739       H  0.76599385  0.99024373  0.07930974     0.05000
H2740       H  0.79408181  0.00297531  0.11460061     0.08200
H2741       H  0.75984862  0.99081991  0.13760905     0.08200
H2742       H  0.84567026  0.86474598  0.13727178     0.08200
H2743       H  0.81473979  0.85033616  0.10944972     0.08200
H2744       H  0.81150942  0.85936615  0.16557014     0.05000
C2745       C  0.83078664  0.94292308  0.37829900    -0.20800
C2746       C  0.81015772  0.94259186  0.34472959    -0.07400
C2747       C  0.79014324  0.92002069  0.34307748     0.13500
C2748       C  0.78790322  0.90127830  0.37920418    -0.20900
C2749       C  0.80546985  0.90450891  0.41650829    -0.07400
C2750       C  0.82976233  0.92293761  0.41312771     0.13500
C2751       C  0.85531263  0.92194155  0.44419552    -0.24200
H2752       H  0.84787063  0.95883540  0.37732880     0.14700
H2753       H  0.77255263  0.88391298  0.37776395     0.14800
C2754       C  0.77230289  0.91479539  0.30267888    -0.24200
H2755       H  0.87591774  0.91869876  0.42493416     0.05000
H2756       H  0.85493071  0.90360233  0.46823115     0.08200
H2757       H  0.85605552  0.94309516  0.46217838     0.08200
H2758       H  0.78699612  0.91220816  0.27355477     0.08200
H2759       H  0.75666420  0.93354100  0.29705476     0.08200
H2760       H  0.75974800  0.89445213  0.30583683     0.05000
C2761       C  0.83617427  0.56151276  0.38809369    -0.20800
C2762       C  0.81638061  0.56629578  0.35355056    -0.07400
C2763       C  0.79915827  0.59297804  0.35398834     0.13500
C2764       C  0.79987892  0.61204801  0.39069876    -0.20900
C2765       C  0.81605931  0.60474016  0.42865692    -0.07400
C2766       C  0.83705663  0.58083460  0.42442762     0.13500
C2767       C  0.86239722  0.57640477  0.45534410    -0.24200
H2768       H  0.85125449  0.54255270  0.38676047     0.14700
H2769       H  0.78735681  0.63261253  0.38947321     0.14800
C2770       C  0.78062354  0.60206851  0.31516036    -0.24200
H2771       H  0.88310683  0.57487215  0.43600758     0.05000
H2772       H  0.86014607  0.55564486  0.47433239     0.08200
H2773       H  0.86457797  0.59512856  0.47813512     0.08200
H2774       H  0.76333702  0.58610650  0.30993149     0.08200
H2775       H  0.79454927  0.60319853  0.28512937     0.08200
H2776       H  0.76962047  0.62402925  0.32007022     0.05000
C2777       C  0.83297552  0.58867209  0.09760997    -0.20800
C2778       C  0.81025388  0.61034289  0.09704933    -0.07400
C2779       C  0.79395173  0.61561284  0.13631319     0.13500
C2780       C  0.79541212  0.59441398  0.16969674    -0.20900
C2781       C  0.81480144  0.56994086  0.16647041    -0.07400
C2782       C  0.83509130  0.56789464  0.13124667     0.13500
C2783       C  0.85781026  0.54306833  0.12704816    -0.24200
H2784       H  0.84855003  0.58708616  0.07062726     0.14700
H2785       H  0.78148369  0.59711763  0.19858569     0.14800
C2786       C  0.77579675  0.64337526  0.14511122    -0.24200
H2787       H  0.87049557  0.54442553  0.09579696     0.05000
H2788       H  0.84706229  0.52155159  0.12752948     0.08200
H2789       H  0.87362477  0.54400371  0.15436085     0.08200
H2790       H  0.75235644  0.63814844  0.14788364     0.08200
H2791       H  0.77863414  0.66054619  0.11959622     0.08200
H2792       H  0.78268098  0.65308417  0.17662644     0.05000
C2793       C  0.69844789  0.91024013  0.34812792    -0.20800
C2794       C  0.68316052  0.93761546  0.35082392    -0.07400
C2795       C  0.66730593  0.94397688  0.38978156     0.13500
C2796       C  0.66881252  0.92403993  0.42546254    -0.20900
C2797       C  0.68696442  0.89791662  0.42546780    -0.07400
C2798       C  0.69988224  0.88995818  0.38392492     0.13500
C2799       C  0.71335704  0.85985023  0.37464420    -0.24200
H2800       H  0.70879869  0.90438028  0.31706324     0.14700
H2801       H  0.65516103  0.92941170  0.45363234     0.14800
C2802       C  0.64949213  0.97240136  0.39482193    -0.24200
H2803       H  0.71989908  0.85738230  0.33953839     0.05000
H2804       H  0.69719085  0.84289258  0.38167289     0.08200
H2805       H  0.73328932  0.85538427  0.39389260     0.08200
H2806       H  0.63132469  0.97319908  0.37094256     0.08200
H2807       H  0.66361394  0.99143816  0.38911816     0.08200
H2808       H  0.63971191  0.97466313  0.42827221     0.05000
C2809       C  0.68791042  0.90364626  0.16970987    -0.20800
C2810       C  0.67181063  0.93019216  0.16490811    -0.07400
C2811       C  0.65426049  0.93522574  0.12769569     0.13500
C2812       C  0.65684749  0.91535759  0.09307264    -0.20900
C2813       C  0.67789069  0.89199260  0.09407197    -0.07400
C2814       C  0.69004248  0.88360712  0.13524933     0.13500
C2815       C  0.70544467  0.85425873  0.14418533    -0.24200
H2816       H  0.69962471  0.89899270  0.19995944     0.14700
H2817       H  0.64341943  0.91918223  0.06443146     0.14800
C2818       C  0.63472569  0.96250657  0.12265793    -0.24200
H2819       H  0.69500590  0.84365347  0.17304114     0.05000
H2820       H  0.72877088  0.85755048  0.15169360     0.08200
H2821       H  0.70409186  0.83865962  0.11653349     0.08200
H2822       H  0.64786775  0.98250079  0.12474242     0.08200
H2823       H  0.61770807  0.96302391  0.14892700     0.08200
H2824       H  0.62344560  0.96313284  0.09047961     0.05000
C2825       C  0.72239352  0.55659611  0.35981049    -0.20800
C2826       C  0.70144438  0.56321806  0.32809756    -0.07400
C2827       C  0.68300794  0.58856562  0.33206931     0.13500
C2828       C  0.68475789  0.60568562  0.36980568    -0.20900
C2829       C  0.70358603  0.59740532  0.40453806    -0.07400
C2830       C  0.72349726  0.57266517  0.39847288     0.13500
C2831       C  0.74523246  0.56131384  0.43249385    -0.24200
H2832       H  0.73674080  0.53724676  0.35568867     0.14700
H2833       H  0.67082014  0.62522300  0.37143686     0.14800
C2834       C  0.66174346  0.59794066  0.29651976    -0.24200
H2835       H  0.75991047  0.54337894  0.41926135     0.05000
H2836       H  0.73382016  0.55162676  0.46096501     0.08200
H2837       H  0.75974977  0.57856663  0.44349680     0.08200
H2838       H  0.64424477  0.58186181  0.29376725     0.08200
H2839       H  0.67349443  0.59971339  0.26453608     0.08200
H2840       H  0.65089162  0.61970832  0.30360833     0.05000
C2841       C  0.67422568  0.59484433  0.09078726    -0.20800
C2842       C  0.69991333  0.59300437  0.06510164    -0.07400
C2843       C  0.72169475  0.57138402  0.07664555     0.13500
C2844       C  0.71772486  0.55342605  0.11383906    -0.20900
C2845       C  0.69203373  0.55495729  0.13968004    -0.07400
C2846       C  0.66988400  0.57616595  0.12759584     0.13500
C2847       C  0.64152564  0.57940353  0.15285785    -0.24200
H2848       H  0.65681470  0.61007522  0.08092761     0.14700
H2849       H  0.73500537  0.53753329  0.12208915     0.14800
C2850       C  0.74935370  0.56583482  0.05024063    -0.24200
H2851       H  0.62708575  0.59719123  0.13890027     0.05000
H2852       H  0.64585899  0.58491844  0.18765990     0.08200
H2853       H  0.62956205  0.55864978  0.15121984     0.08200
H2854       H  0.76855140  0.56842529  0.07163038     0.08200
H2855       H  0.75138814  0.58098718  0.02193832     0.08200
H2856       H  0.75000407  0.54293449  0.03761530     0.05000
O2857       O  0.71107716  0.96650414  0.79103074    -0.75000
O2858       O  0.71213165  0.51723759  0.69474519    -0.75000
O2859       O  0.71709366  0.52177876  0.78264026    -0.75000
O2860       O  0.70546560  0.96152410  0.70343162    -0.75100
O2861       O  0.65722116  0.96986155  0.70972282    -0.75000
O2862       O  0.66913579  0.53164460  0.78826108    -0.75000
O2863       O  0.66442611  0.52744011  0.70034191    -0.75000
O2864       O  0.66300732  0.97462405  0.79813305    -0.75000
Ni2865     Ni  0.71349480  0.99298275  0.74157380     1.25400
Ni2866     Ni  0.66032193  0.50072597  0.74990215     1.25400
C2867       C  0.68696098  0.96169534  0.81098157     0.87200
C2868       C  0.68916621  0.53162910  0.68140346     0.87200
C2869       C  0.69538419  0.53726901  0.79772348     0.87200
C2870       C  0.67926774  0.95546905  0.69385484     0.87400
C2871       C  0.70420867  0.61657354  0.94308933     0.86000
C2872       C  0.68157162  0.64219472  0.94864388    -0.54300
C2873       C  0.68355764  0.65524251  0.49159729     0.08900
C2874       C  0.70810306  0.64200769  0.52179783     0.19800
C2875       C  0.73319286  0.63119968  0.94970505    -0.55000
C2876       C  0.73610938  0.64252331  0.49221034     0.09000
C2877       C  0.69898135  0.59696225  0.98365761    -0.54500
C2878       C  0.70138707  0.60887535  0.52683790     0.09600
H2879       H  0.66418402  0.64798280  0.92602901     0.14100
H2880       H  0.71007695  0.65354579  0.55366842    -0.00200
H2881       H  0.75069888  0.62888261  0.92624935     0.14400
H2882       H  0.69225628  0.57260810  0.48533440     0.14200
C2883       C  0.68962433  0.87727607  0.55143606     0.86000
C2884       C  0.67401075  0.84902592  0.54484710    -0.54300
C2885       C  0.68159686  0.83620014  0.00541321     0.08900
C2886       C  0.70585982  0.85263383  0.97892959     0.19800
C2887       C  0.72225508  0.86948305  0.54931086    -0.55000
C2888       C  0.73089938  0.85689226  0.01255197     0.09000
C2889       C  0.68465603  0.89539204  0.50873955    -0.54500
C2890       C  0.69323713  0.88486008  0.97010838     0.09600
H2891       H  0.65490426  0.84384227  0.56416387     0.14100
H2892       H  0.71384451  0.83969551  0.95058469    -0.00200
H2893       H  0.73747969  0.87823803  0.57260255     0.14400
H2894       H  0.67434107  0.91902026  0.01160830     0.14200
O2895       O  0.83922603  0.53311325  0.71256247    -0.75000
O2896       O  0.83301461  0.97203770  0.79533882    -0.75000
O2897       O  0.83062100  0.97400350  0.70632730    -0.75000
O2898       O  0.83953654  0.53101407  0.80174593    -0.75100
O2899       O  0.79112491  0.53737247  0.80298524    -0.75000
O2900       O  0.78227583  0.98103941  0.70909888    -0.75000
O2901       O  0.78440106  0.97782023  0.79828495    -0.75000
O2902       O  0.79075098  0.54006302  0.71435477    -0.75000
Ni2903     Ni  0.83624362  0.00240845  0.75346293     1.25400
Ni2904     Ni  0.78433310  0.00922506  0.75632310     1.25400
C2905       C  0.81597684  0.54660773  0.69962873     0.87200
C2906       C  0.80827414  0.96486355  0.81059244     0.87200
C2907       C  0.80507781  0.96827926  0.69188134     0.87200
C2908       C  0.81620240  0.54393142  0.81766360     0.87400
C2909       C  0.80506626  0.62483051  0.55382340     0.86000
C2910       C  0.81980543  0.65385404  0.54933375    -0.54300
C2911       C  0.81536482  0.66845048  0.01073099     0.08900
C2912       C  0.79478118  0.65223664  0.97869602     0.19800
C2913       C  0.77283007  0.63231168  0.54743219    -0.55000
C2914       C  0.76619523  0.64719103  0.00663271     0.09000
C2915       C  0.81347662  0.60651868  0.51210125    -0.54500
C2916       C  0.80940269  0.62097026  0.97263954     0.09600
H2917       H  0.83449037  0.66165955  0.57407235     0.14100
H2918       H  0.79075768  0.66455943  0.94762261    -0.00200
H2919       H  0.75617560  0.62449339  0.56976371     0.14400
H2920       H  0.81811585  0.58392966  0.01473100     0.14200
C2921       C  0.79870974  0.88666429  0.95797513     0.86000
C2922       C  0.81798240  0.85906337  0.96141223    -0.54300
C2923       C  0.81387861  0.84322470  0.49693314     0.08900
C2924       C  0.78930717  0.85633135  0.52856522     0.19800
C2925       C  0.76749688  0.87628370  0.96242617    -0.55000
C2926       C  0.76215864  0.86016817  0.49810874     0.09000
C2927       C  0.80283104  0.90410846  0.00084137    -0.54500
C2928       C  0.79796480  0.88869225  0.53914504     0.09600
H2929       H  0.83540422  0.85376330  0.93784716     0.14100
H2930       H  0.78457246  0.84240176  0.55756636    -0.00200
H2931       H  0.75010152  0.88396866  0.94106355     0.14400
H2932       H  0.80815509  0.92716617  0.50111720     0.14200
O2933       O  0.52914202  0.66353508  0.70568929    -0.75000
O2934       O  0.96986177  0.66348947  0.79355459    -0.75000
O2935       O  0.96980021  0.66582633  0.70422006    -0.75000
O2936       O  0.52953103  0.66156757  0.79452290    -0.75100
O2937       O  0.52983353  0.71056894  0.79579266    -0.75000
O2938       O  0.96985901  0.71466602  0.70751839    -0.75000
O2939       O  0.97083471  0.71260425  0.79624387    -0.75000
O2940       O  0.52849692  0.71276356  0.70759741    -0.75000
Ni2941     Ni  0.99942346  0.66166622  0.74939233     1.25400
Ni2942     Ni  0.99971123  0.71422165  0.75183012     1.25400
C2943       C  0.53833077  0.68824090  0.69227962     0.87200
C2944       C  0.96109285  0.68816319  0.80972426     0.87200
C2945       C  0.96037491  0.69119813  0.69022125     0.87200
C2946       C  0.54005437  0.68543494  0.80922215     0.87400
C2947       C  0.61629928  0.69254404  0.54323080     0.86000
C2948       C  0.64477967  0.67358917  0.54151680    -0.54300
C2949       C  0.66086209  0.67875206  0.00093531     0.08900
C2950       C  0.64705877  0.70273549  0.96983232     0.19800
C2951       C  0.62671793  0.72375126  0.53898319    -0.55000
C2952       C  0.64274298  0.73045585  0.00018379     0.09000
C2953       C  0.60093578  0.68523084  0.50025099    -0.54500
C2954       C  0.61606676  0.69137851  0.96073127     0.09600
H2955       H  0.65091761  0.65650694  0.56470161     0.14100
H2956       H  0.66010959  0.70665942  0.93952687    -0.00200
H2957       H  0.62042409  0.74076918  0.56246250     0.14400
H2958       H  0.57924116  0.67835398  0.99905212     0.14200
C2959       C  0.88398949  0.69808353  0.95991924     0.86000
C2960       C  0.85438367  0.68324852  0.96076563    -0.54300
C2961       C  0.83780792  0.68857171  0.49626832     0.08900
C2962       C  0.85246504  0.71078927  0.52776762     0.19800
C2963       C  0.87583348  0.73073208  0.96504643    -0.55000
C2964       C  0.85763038  0.73803296  0.49776723     0.09000
C2965       C  0.89833313  0.68780741  0.00285411    -0.54500
C2966       C  0.88338536  0.69655673  0.53686917     0.09600
H2967       H  0.84799968  0.66652482  0.93800781     0.14100
H2968       H  0.83973715  0.71612814  0.55815883    -0.00200
H2969       H  0.88485743  0.74722398  0.94404762     0.14400
H2970       H  0.91986412  0.67903728  0.50022354     0.14200
O2971       O  0.96586036  0.79194026  0.79279275    -0.75000
O2972       O  0.52432938  0.78564431  0.70022565    -0.75000
O2973       O  0.52477045  0.78271689  0.78940987    -0.75000
O2974       O  0.96554717  0.79612529  0.70416214    -0.75100
O2975       O  0.97059391  0.84460346  0.70768973    -0.75000
O2976       O  0.53062742  0.83129336  0.79127482    -0.75000
O2977       O  0.52977219  0.83415932  0.70215800    -0.75000
O2978       O  0.97169060  0.84020218  0.79727725    -0.75000
Ni2979     Ni  0.99482841  0.78755276  0.74643526     1.25400
Ni2980     Ni  0.00088182  0.83943985  0.74973180     1.25400
C2981       C  0.95915233  0.81679504  0.81081013     0.87200
C2982       C  0.53653362  0.80873118  0.68553466     0.87200
C2983       C  0.53726177  0.80519515  0.80441483     0.87200
C2984       C  0.95842295  0.82233206  0.69171172     0.87400
C2985       C  0.62000763  0.80133284  0.94644414     0.86000
C2986       C  0.64692716  0.81959037  0.95156114    -0.54300
C2987       C  0.66216113  0.81174200  0.49172041     0.08900
C2988       C  0.64760926  0.78709883  0.52037731     0.19800
C2989       C  0.63141298  0.76955920  0.94920778    -0.55000
C2990       C  0.64514189  0.76052841  0.48831445     0.09000
C2991       C  0.60287037  0.80755147  0.98962218    -0.54500
C2992       C  0.61530644  0.79843476  0.52903530     0.09600
H2993       H  0.65025492  0.83984082  0.93399955     0.14100
H2994       H  0.66063512  0.78096009  0.54948999    -0.00200
H2995       H  0.62457500  0.75343465  0.92614986     0.14400
H2996       H  0.58116396  0.81704439  0.48756183     0.14200
C2997       C  0.88093952  0.80789157  0.54828782     0.86000
C2998       C  0.85440001  0.82796354  0.54310605    -0.54300
C2999       C  0.83734027  0.82162401  0.01074813     0.08900
C3000       C  0.85077498  0.79632442  0.98098494     0.19800
C3001       C  0.86986992  0.77660554  0.54765565    -0.55000
C3002       C  0.85603027  0.76962622  0.01360162     0.09000
C3003       C  0.89805723  0.81030345  0.50417826    -0.54500
C3004       C  0.88222809  0.80622353  0.96756755     0.09600
H3005       H  0.85118297  0.84780782  0.56211632     0.14100
H3006       H  0.83558104  0.79196112  0.95419331    -0.00200
H3007       H  0.87559094  0.76036295  0.57237897     0.14400
H3008       H  0.92098891  0.81603614  0.00303199     0.14200
C3009       C  0.91422214  0.79722856  0.84756619    -0.20800
C3010       C  0.93658919  0.81762263  0.84773635    -0.07400
C3011       C  0.93724098  0.83707680  0.88381169     0.13500
C3012       C  0.91741533  0.83394945  0.91948659    -0.20900
C3013       C  0.89659257  0.81152598  0.92189633    -0.07400
C3014       C  0.89372285  0.79451793  0.88259431     0.13500
C3015       C  0.86974818  0.77367051  0.87350863    -0.24200
H3016       H  0.91249463  0.78310879  0.81912629     0.14700
H3017       H  0.91886192  0.84907401  0.94670948     0.14800
C3018       C  0.95967116  0.86042515  0.88618765    -0.24200
H3019       H  0.85773589  0.78127685  0.84373843     0.05000
H3020       H  0.85356816  0.77183593  0.89981125     0.08200
H3021       H  0.87938319  0.75128751  0.86691579     0.08200
H3022       H  0.95653037  0.87635560  0.85866580     0.08200
H3023       H  0.98199203  0.85004477  0.88429252     0.08200
H3024       H  0.95786140  0.87300748  0.91737299     0.05000
C3025       C  0.91088870  0.80877702  0.66530254    -0.20800
C3026       C  0.93536205  0.82588685  0.65900727    -0.07400
C3027       C  0.93800463  0.84270291  0.61996914     0.13500
C3028       C  0.91906826  0.83735903  0.58542881    -0.20900
C3029       C  0.89756102  0.81610339  0.58914289    -0.07400
C3030       C  0.89082437  0.80524529  0.63181941     0.13500
C3031       C  0.86264972  0.79103442  0.64439250    -0.24200
H3032       H  0.90744807  0.79795178  0.69676388     0.14700
H3033       H  0.92159140  0.84968141  0.55510773     0.14800
C3034       C  0.96041541  0.86575023  0.61229037    -0.24200
H3035       H  0.85325259  0.80190109  0.67424774     0.05000
H3036       H  0.86696734  0.76731910  0.65192212     0.08200
H3037       H  0.84563276  0.79359238  0.61896208     0.08200
H3038       H  0.97583436  0.86804031  0.63955463     0.08200
H3039       H  0.94898416  0.88747757  0.60715615     0.08200
H3040       H  0.97336500  0.86040672  0.58211649     0.05000
C3041       C  0.58550909  0.81604181  0.83203799    -0.20800
C3042       C  0.55933397  0.80165976  0.83811678    -0.07400
C3043       C  0.55365027  0.78672999  0.87755369     0.13500
C3044       C  0.57385033  0.78805310  0.91117861    -0.20900
C3045       C  0.59979098  0.80396333  0.90690529    -0.07400
C3046       C  0.60633082  0.81679000  0.86532414     0.13500
C3047       C  0.63500519  0.82998490  0.85367780    -0.24200
H3048       H  0.58962723  0.82679371  0.80073413     0.14700
H3049       H  0.56942146  0.77611626  0.94137530     0.14800
C3050       C  0.52601006  0.77020184  0.88497885    -0.24200
H3051       H  0.63722537  0.83399080  0.81772821     0.05000
H3052       H  0.65329267  0.81453003  0.86287532     0.03000
H3053       H  0.63642856  0.85180791  0.86939806     0.08200
H3054       H  0.52512362  0.75179195  0.86128887     0.08200
H3055       H  0.50661011  0.78531328  0.88064348     0.08200
H3056       H  0.52487412  0.76060358  0.91862643     0.05000
C3057       C  0.58766603  0.80404896  0.65243290    -0.20800
C3058       C  0.55721684  0.80580742  0.64684014    -0.07400
C3059       C  0.54647927  0.80208462  0.60416835     0.13500
C3060       C  0.56590473  0.79933831  0.56809949    -0.20900
C3061       C  0.59680806  0.79926293  0.57213095    -0.07400
C3062       C  0.60750573  0.79956791  0.61632963     0.13500
C3063       C  0.63905167  0.79314444  0.62743403    -0.24200
H3064       H  0.59593560  0.80500991  0.68564564     0.14700
H3065       H  0.55619759  0.79585895  0.53645212     0.14800
C3066       C  0.51414214  0.80061991  0.59661603    -0.24200
H3067       H  0.64284499  0.79425977  0.66340113     0.05000
H3068       H  0.65342432  0.80916263  0.61196565     0.08200
H3069       H  0.64549923  0.77040670  0.61724793     0.08200
H3070       H  0.50301506  0.82084475  0.60940749     0.08200
H3071       H  0.50559892  0.78132646  0.61434429     0.08200
H3072       H  0.50883658  0.79855050  0.56123374     0.05000
C3073       C  0.92266087  0.66879419  0.64158803    -0.20800
C3074       C  0.93886033  0.69342731  0.65278308    -0.07400
C3075       C  0.93587603  0.71884642  0.62540167     0.13500
C3076       C  0.91700478  0.71904102  0.58922571    -0.20900
C3077       C  0.89965471  0.69522261  0.57954188    -0.07400
C3078       C  0.90402155  0.66903831  0.60469678     0.13500
C3079       C  0.89136004  0.64030089  0.59170745    -0.24200
H3080       H  0.92541017  0.64866450  0.66066929     0.14700
H3081       H  0.91737538  0.73739092  0.56642573     0.14800
C3082       C  0.95324954  0.74573826  0.63257805    -0.24200
H3083       H  0.90923673  0.62326444  0.58799328     0.05000
H3084       H  0.87991646  0.64164445  0.55984033     0.08200
H3085       H  0.87598509  0.63308921  0.61772490     0.08200
H3086       H  0.97695114  0.73971969  0.63194884     0.08200
H3087       H  0.94667110  0.75524059  0.66466223     0.08200
H3088       H  0.94907893  0.76300891  0.60712542     0.05000
C3089       C  0.94980206  0.70496778  0.88302506    -0.20800
C3090       C  0.94125258  0.68882948  0.84698093    -0.07400
C3091       C  0.91465991  0.67450970  0.84733339     0.13500
C3092       C  0.89659766  0.67718727  0.88445266    -0.20900
C3093       C  0.90480486  0.69361628  0.92130421    -0.07400
C3094       C  0.93241457  0.70748551  0.92053265     0.13500
C3095       C  0.94466726  0.72511868  0.95814334    -0.24200
H3096       H  0.97070182  0.71547753  0.88183692     0.14700
H3097       H  0.87592952  0.66676507  0.88333397     0.14800
C3098       C  0.90477526  0.65752410  0.80804326    -0.24200
H3099       H  0.96582532  0.73479184  0.94899986     0.05000
H3100       H  0.94943933  0.71102059  0.98711721     0.08200
H3101       H  0.92628107  0.75056844  0.45467417     0.08200
H3102       H  0.92016730  0.63855158  0.80163715     0.08200
H3103       H  0.90393737  0.67214391  0.77863019     0.08200
H3104       H  0.88269606  0.64873123  0.81331850     0.05000
C3105       C  0.56295857  0.66229079  0.87606399    -0.20800
C3106       C  0.56376053  0.68402224  0.84310398    -0.07400
C3107       C  0.58715143  0.70373515  0.84380864     0.13500
C3108       C  0.60598437  0.70391384  0.88041825    -0.20900
C3109       C  0.60241734  0.68487880  0.91657683    -0.07400
C3110       C  0.58264839  0.66169034  0.91142638     0.13500
C3111       C  0.58274943  0.63499760  0.94117588    -0.24200
H3112       H  0.54672079  0.64557766  0.87444578     0.14700
H3113       H  0.62357536  0.71899474  0.88014887     0.14800
C3114       C  0.59377521  0.72412515  0.80598476    -0.24200
H3115       H  0.58520012  0.61475976  0.92094900     0.05000
H3116       H  0.56253699  0.63197116  0.46068856     0.08200
H3117       H  0.60127619  0.63430509  0.96439066     0.08200
H3118       H  0.57996291  0.72083300  0.77690642     0.08200
H3119       H  0.61677183  0.72005808  0.79501525     0.08200
H3120       H  0.59101899  0.74733264  0.81683912     0.05000
C3121       C  0.55134242  0.70667364  0.62080094    -0.20800
C3122       C  0.55914290  0.68889915  0.65647398    -0.07400
C3123       C  0.58537666  0.67189373  0.65621178     0.13500
C3124       C  0.60320563  0.67256447  0.61882810    -0.20900
C3125       C  0.59557155  0.69024982  0.58210003    -0.07400
C3126       C  0.56876793  0.70754971  0.58328477     0.13500
C3127       C  0.55721560  0.72673068  0.54565797    -0.24200
H3128       H  0.53078639  0.71936676  0.62190751     0.14700
H3129       H  0.62343150  0.65974734  0.61996285     0.14800
C3130       C  0.59585535  0.65396840  0.69535914    -0.24200
H3131       H  0.53777275  0.74048944  0.55582889     0.05000
H3132       H  0.54881324  0.71341282  0.01937239     0.08200
H3133       H  0.57350155  0.74218202  0.53343963     0.08200
H3134       H  0.58180925  0.65709052  0.72496702     0.08200
H3135       H  0.61810192  0.66057328  0.70438805     0.08200
H3136       H  0.59670079  0.63024463  0.68687587     0.05000
C3137       C  0.78276478  0.93412693  0.58203543    -0.20800
C3138       C  0.79635763  0.90561068  0.58292446    -0.07400
C3139       C  0.81061207  0.89717108  0.62296494     0.13500
C3140       C  0.81399587  0.91818485  0.65689146    -0.20900
C3141       C  0.80154694  0.94692006  0.65447177    -0.07400
C3142       C  0.78489901  0.95445067  0.61681199     0.13500
C3143       C  0.77007659  0.98446005  0.61226666    -0.24200
H3144       H  0.77058450  0.94093612  0.55310409     0.14700
H3145       H  0.82570823  0.91165713  0.68641320     0.14800
C3146       C  0.82191774  0.86643853  0.63287759    -0.24200
H3147       H  0.75917288  0.98738863  0.57998727     0.05000
H3148       H  0.78636458  0.00182989  0.61528011     0.08200
H3149       H  0.75307841  0.98735787  0.63827717     0.08200
H3150       H  0.84611715  0.86598607  0.63514526     0.08200
H3151       H  0.81511103  0.85032024  0.60872774     0.08200
H3152       H  0.81283086  0.85913577  0.66498095     0.05000
C3153       C  0.82870493  0.94299946  0.87757994    -0.20800
C3154       C  0.80786075  0.94213107  0.84434088    -0.07400
C3155       C  0.78833453  0.91906836  0.84318548     0.13500
C3156       C  0.78720092  0.89997579  0.87909754    -0.20900
C3157       C  0.80498399  0.90366407  0.91612431    -0.07400
C3158       C  0.82853173  0.92298307  0.91243765     0.13500
C3159       C  0.85416652  0.92293233  0.94329076    -0.24200
H3160       H  0.84531584  0.95940793  0.87634266     0.14700
H3161       H  0.77241135  0.88205206  0.87776396     0.14800
C3162       C  0.76967458  0.91377797  0.80367362    -0.24200
H3163       H  0.87479337  0.92057893  0.92387851     0.05000
H3164       H  0.85454634  0.90444196  0.96712839     0.08200
H3165       H  0.85413189  0.94408169  0.96142411     0.08200
H3166       H  0.78378119  0.91088611  0.77396326     0.08200
H3167       H  0.75418151  0.93264191  0.79851148     0.08200
H3168       H  0.75672244  0.89373504  0.80774312     0.05000
C3169       C  0.83655540  0.56114128  0.88964287    -0.20800
C3170       C  0.81780521  0.56645116  0.85397464    -0.07400
C3171       C  0.80107398  0.59343936  0.85369552     0.13500
C3172       C  0.80156107  0.61261691  0.89034470    -0.20900
C3173       C  0.81670879  0.60500010  0.92916601    -0.07400
C3174       C  0.83702709  0.58039405  0.92612205     0.13500
C3175       C  0.86131635  0.57497505  0.95861666    -0.24200
H3176       H  0.85111017  0.54175857  0.88913126     0.14700
H3177       H  0.78947635  0.63340654  0.88851143     0.14800
C3178       C  0.78303285  0.60255154  0.81437173    -0.24200
H3179       H  0.88247498  0.57240701  0.94060402     0.05000
H3180       H  0.85762531  0.55445166  0.97756943     0.08200
H3181       H  0.86373413  0.59366912  0.98137752     0.08200
H3182       H  0.76539323  0.58690373  0.80936457     0.08200
H3183       H  0.79720237  0.60306693  0.78454062     0.08200
H3184       H  0.77248854  0.62478704  0.81862207     0.05000
C3185       C  0.83518145  0.58758714  0.59667634    -0.20800
C3186       C  0.81269909  0.60954224  0.59679800    -0.07400
C3187       C  0.79746335  0.61550640  0.63679150     0.13500
C3188       C  0.79931497  0.59460249  0.67047486    -0.20900
C3189       C  0.81813633  0.56976581  0.66667179    -0.07400
C3190       C  0.83775833  0.56713508  0.63071706     0.13500
C3191       C  0.86013156  0.54201868  0.62630996    -0.24200
H3192       H  0.85021166  0.58557281  0.56906700     0.14700
H3193       H  0.78597398  0.59769754  0.69990082     0.14800
C3194       C  0.77973819  0.64351216  0.64580911    -0.24200
H3195       H  0.87244161  0.54301147  0.59468328     0.05000
H3196       H  0.84913906  0.52064414  0.62752344     0.08200
H3197       H  0.87627779  0.54295703  0.65317993     0.08200
H3198       H  0.75634877  0.63848057  0.65023381     0.08200
H3199       H  0.78190003  0.66031914  0.61960017     0.08200
H3200       H  0.78755823  0.65358119  0.67652334     0.05000
C3201       C  0.69424012  0.91158842  0.84614558    -0.20800
C3202       C  0.68743615  0.94182257  0.85053305    -0.07400
C3203       C  0.68439835  0.95333012  0.89312963     0.13500
C3204       C  0.68782245  0.93457872  0.92996820    -0.20900
C3205       C  0.69274386  0.90344713  0.92689222    -0.07400
C3206       C  0.69697534  0.89231459  0.88310326     0.13500
C3207       C  0.70539058  0.86069870  0.87350433    -0.24200
H3208       H  0.69776347  0.90301936  0.81323425     0.14700
H3209       H  0.68748330  0.94544206  0.96128777     0.14800
C3210       C  0.67847214  0.98591023  0.89989406    -0.24200
H3211       H  0.70596131  0.85612488  0.83764810     0.05000
H3212       H  0.68938089  0.84598824  0.88831877     0.08200
H3213       H  0.72764406  0.85535306  0.88577243     0.08200
H3214       H  0.65749073  0.99283988  0.88428659     0.08200
H3215       H  0.69638941  0.99843895  0.88484247     0.08200
H3216       H  0.67691833  0.99172929  0.93528942     0.05000
C3217       C  0.69042048  0.90544080  0.66847446    -0.20800
C3218       C  0.67476885  0.93213940  0.66272162    -0.07400
C3219       C  0.65759100  0.93711624  0.62511367     0.13500
C3220       C  0.65962804  0.91657991  0.59136518    -0.20900
C3221       C  0.67983269  0.89250672  0.59350609    -0.07400
C3222       C  0.69209495  0.88475283  0.63485723     0.13500
C3223       C  0.70737178  0.85548173  0.64475942    -0.24200
H3224       H  0.70202266  0.90108155  0.69890672     0.14700
H3225       H  0.64650321  0.92040300  0.56237949     0.14800
C3226       C  0.63907296  0.96498201  0.61873576    -0.24200
H3227       H  0.69713775  0.84552725  0.67430977     0.05000
H3228       H  0.73079730  0.85877891  0.65156964     0.08200
H3229       H  0.70569219  0.83933263  0.61789785     0.08200
H3230       H  0.65293293  0.98448186  0.62049991     0.08200
H3231       H  0.62178816  0.96653893  0.64455504     0.08200
H3232       H  0.62814592  0.96554179  0.58627638     0.05000
C3233       C  0.72224879  0.55527878  0.85989589    -0.20800
C3234       C  0.70052735  0.56068527  0.82891037    -0.07400
C3235       C  0.68279383  0.58667650  0.83101502     0.13500
C3236       C  0.68564261  0.60545946  0.86672704    -0.20900
C3237       C  0.70488999  0.59829955  0.90131206    -0.07400
C3238       C  0.72464390  0.57327629  0.89644290     0.13500
C3239       C  0.74703172  0.56318685  0.93026096    -0.24200
H3240       H  0.73605647  0.53541296  0.85727987     0.14700
H3241       H  0.67202358  0.62526699  0.86730013     0.14800
C3242       C  0.66102490  0.59495993  0.79566371    -0.24200
H3243       H  0.76220186  0.54561116  0.91717196     0.05000
H3244       H  0.73614877  0.55349764  0.95919871     0.08200
H3245       H  0.76099680  0.58106319  0.94049313     0.08200
H3246       H  0.64301819  0.57931811  0.79554581     0.08200
H3247       H  0.67220161  0.59491767  0.76309029     0.08200
H3248       H  0.65090683  0.61729310  0.80089304     0.05000
C3249       C  0.67449383  0.59374563  0.59539377    -0.20800
C3250       C  0.69984416  0.59145229  0.56903924    -0.07400
C3251       C  0.72142194  0.56949827  0.58014913     0.13500
C3252       C  0.71738210  0.55133422  0.61721365    -0.20900
C3253       C  0.69181273  0.55301515  0.64330494    -0.07400
C3254       C  0.67006930  0.57491513  0.63201247     0.13500
C3255       C  0.64201264  0.57880141  0.65794039    -0.24200
H3256       H  0.65735604  0.60949176  0.58617604     0.14700
H3257       H  0.73442522  0.53516105  0.62512261     0.14800
C3258       C  0.74893467  0.56391240  0.55337965    -0.24200
H3259       H  0.62809590  0.59733363  0.64495119     0.05000
H3260       H  0.64683370  0.58359886  0.69280717     0.08200
H3261       H  0.62923341  0.55859299  0.65583585     0.08200
H3262       H  0.76827841  0.56639988  0.57454770     0.08200
H3263       H  0.75087893  0.57913664  0.52512374     0.08200
H3264       H  0.74939539  0.54107674  0.54052076     0.05000
loop_ 
_geom_bond_atom_site_label_1 
_geom_bond_atom_site_label_2 
_geom_bond_distance 
_geom_bond_site_symmetry_2 
_ccdc_geom_bond_type 
O1           Ni9   1.923       .  S
O1           C11   1.280       .  A
O2         Ni825   1.933   1_545  S
O2           C12   1.286       .  A
O3         Ni825   1.899   1_545  S
O3           C13   1.279       .  A
O4           Ni9   1.897       .  S
O4           C14   1.279       .  A
O5         Ni826   1.891       .  S
O5           C14   1.274       .  A
O6          Ni10   1.889   1_545  S
O6           C13   1.275       .  A
O7          Ni10   1.943   1_545  S
O7           C12   1.286       .  A
O8         Ni826   1.951       .  S
O8           C11   1.288       .  A
Ni9         O818   1.921       .  S
Ni9         O819   1.898       .  S
Ni9        Ni826   2.388       .  S
Ni10        O821   1.893       .  S
Ni10        O824   1.943       .  S
Ni10       Ni825   2.386       .  S
C11         C346   1.498       .  S
C12         C397   1.515       .  S
C13         C378   1.456       .  S
C14         C362   1.449       .  S
C15          C16   1.539       .  S
C15          C21   1.539       .  S
C15          C19   1.522       .  S
C15         C381   1.521       .  S
C16          H23   1.082       .  S
C16         C425   1.362       .  D
C17          C18   1.559   1_556  S
C17         C424   1.360       .  D
C17         C501   1.479   1_556  S
C18          C22   1.554       .  S
C18          C20   1.559   1_554  S
C18          H24   1.111       .  S
C19          H25   1.069       .  S
C19         C428   1.353       .  D
C20         C427   1.351       .  D
C20         C466   1.486   1_556  S
C21         H434   1.086       .  S
C21         C430   1.356       .  D
C22         C429   1.358   1_554  D
C22         C394   1.508       .  S
H26         C429   1.086       .  S
C27          C28   1.509       .  S
C27          C33   1.547       .  S
C27          C31   1.524       .  S
C27         C365   1.515       .  S
C28          H35   1.081       .  S
C28         C437   1.350       .  D
C29          C30   1.576       .  S
C29         C436   1.347       .  D
C29         C539   1.490       .  S
C30          C34   1.574       .  S
C30          C32   1.561       .  S
C30          H36   1.100       .  S
C31          H37   1.086       .  S
C31         C440   1.354       .  D
C32         C439   1.357       .  D
C32         C478   1.491       .  S
C33         H446   1.079       .  S
C33         C442   1.376   1_554  D
C34         C441   1.374       .  D
C34         C349   1.551       .  S
H38         C441   1.076       .  S
O39        Ni863   1.885       .  S
O39          C49   1.273       .  A
O40         Ni47   1.882       .  S
O40          C50   1.273       .  A
O41         Ni47   1.961       .  S
O41          C51   1.290       .  A
O42        Ni863   1.959       .  S
O42          C52   1.291       .  A
O43        Ni864   1.932       .  S
O43          C52   1.283       .  A
O44         Ni48   1.936       .  S
O44          C51   1.284       .  A
O45         Ni48   1.908       .  S
O45          C50   1.280       .  A
O46        Ni864   1.900       .  S
O46          C49   1.280       .  A
Ni47        O855   1.886       .  S
Ni47        O858   1.958       .  S
Ni47        Ni48   2.386       .  S
Ni48        O859   1.935       .  S
Ni48        O862   1.904       .  S
C49         C333   1.455       .  S
C50         C298   1.453       .  S
C51         C285   1.515       .  S
C52         C314   1.513       .  S
C53          C54   1.509       .  S
C53          C59   1.558       .  S
C53          C57   1.515       .  S
C53         C330   1.514       .  S
C54          H61   1.084       .  S
C54         C463   1.352       .  D
C55          C56   1.569       .  S
C55         C462   1.352       .  D
C55         C513   1.483       .  S
C56          C60   1.558       .  S
C56          C58   1.577       .  S
C56          H62   1.109       .  S
C57          H63   1.084       .  S
C57         C466   1.356       .  D
C58         C465   1.356       .  D
C58         C428   1.488       .  S
C59         H472   1.083       .  S
C59         C468   1.367   1_554  D
C60         C467   1.366       .  D
C60         C317   1.538       .  S
H64         C467   1.083       .  S
C65          C66   1.508       .  S
C65          C71   1.548       .  S
C65          C69   1.526       .  S
C65         C301   1.515       .  S
C66          H73   1.088       .  S
C66         C475   1.350       .  D
C67          C68   1.576   1_556  S
C67         C474   1.348       .  D
C67         C551   1.479   1_556  S
C68          C72   1.574       .  S
C68          C70   1.563   1_554  S
C68          H74   1.106       .  S
C69          H75   1.079       .  S
C69         C478   1.354       .  D
C70         C477   1.355       .  D
C70         C440   1.490   1_556  S
C71         H484   1.085       .  S
C71         C480   1.374       .  D
C72         C479   1.372       .  D
C72         C282   1.543       .  S
H76         C479   1.086       .  S
O77       Ni1717   1.895   1_455  S
O77          C87   1.277       .  A
O78         Ni85   1.898       .  S
O78          C88   1.276       .  A
O79         Ni85   1.946       .  S
O79          C89   1.287       .  A
O80       Ni1717   1.946   1_455  S
O80          C90   1.288       .  A
O81       Ni1718   1.934   1_455  S
O81          C90   1.284       .  A
O82         Ni86   1.930       .  S
O82          C89   1.284       .  A
O83         Ni86   1.882       .  S
O83          C88   1.276       .  A
O84       Ni1718   1.881   1_455  S
O84          C87   1.275       .  A
Ni85       O1709   1.896       .  S
Ni85       O1712   1.947       .  S
Ni85        Ni86   2.389       .  S
Ni86       O1713   1.933       .  S
Ni86       O1716   1.881       .  S
C87         C266   1.441       .  S
C88         C234   1.444       .  S
C89         C218   1.514       .  S
C90         C250   1.508       .  S
C91          C92   1.535       .  S
C91          C97   1.534       .  S
C91          C95   1.517       .  S
C91         C269   1.514       .  S
C92          H99   1.077       .  S
C92         C501   1.361       .  D
C93          C94   1.562       .  S
C93         C500   1.362       .  D
C93         C425   1.481       .  S
C94          C98   1.559       .  S
C94          C96   1.574       .  S
C94         H100   1.110       .  S
C95         H101   1.084       .  S
C95         C504   1.350       .  D
C96         C503   1.352       .  D
C96         C542   1.494       .  S
C97         H510   1.082       .  S
C97         C506   1.359   1_554  D
C98         C505   1.360       .  D
C98         C253   1.526       .  S
H102        C505   1.082       .  S
C103        C104   1.537       .  S
C103        C109   1.530       .  S
C103        C107   1.524       .  S
C103        C237   1.515       .  S
C104        H111   1.081       .  S
C104        C513   1.364       .  D
C105        C106   1.568   1_556  S
C105        C512   1.367       .  D
C105        C463   1.482   1_556  S
C106        C110   1.561       .  S
C106        C108   1.556   1_554  S
C106        H112   1.110       .  S
C107        H113   1.073       .  S
C107        C516   1.349       .  D
C108        C515   1.348       .  D
C108        C554   1.491   1_556  S
C109        H522   1.086       .  S
C109        C518   1.352       .  D
C110        C517   1.349   1_554  D
C110        C221   1.503       .  S
H114        C517   1.087   1_554  S
O115       Ni123   1.933       .  S
O115        C125   1.284       .  A
O116      Ni1755   1.935   1_455  S
O116        C126   1.283       .  A
O117      Ni1755   1.898   1_455  S
O117        C127   1.277       .  A
O118       Ni123   1.893       .  S
O118        C128   1.278       .  A
O119       Ni124   1.901       .  S
O119        C128   1.274       .  A
O120      Ni1756   1.889       .  S
O120        C127   1.275       .  A
O121      Ni1756   1.956       .  S
O121        C126   1.289       .  A
O122       Ni124   1.958       .  S
O122        C125   1.290       .  A
Ni123      O1748   1.935       .  S
Ni123      O1749   1.897       .  S
Ni123      Ni124   2.387       .  S
Ni124      O1752   1.889       .  S
Ni124      O1753   1.956       .  S
C125        C154   1.519       .  S
C126        C202   1.506       .  S
C127        C186   1.447       .  S
C128        C170   1.460       .  S
C129        C130   1.519       .  S
C129        C135   1.543       .  S
C129        C133   1.518       .  S
C129        C189   1.524       .  S
C130        H137   1.076       .  S
C130        C539   1.361       .  D
C131        C132   1.576   1_556  S
C131        C538   1.359       .  D
C131        C437   1.486   1_556  S
C132        C136   1.568       .  S
C132        C134   1.565   1_554  S
C132        H138   1.101       .  S
C133        H139   1.075       .  S
C133        C542   1.345       .  D
C134        C541   1.346       .  D
C134        C504   1.491   1_556  S
C135        H548   1.084       .  S
C135        C544   1.371       .  D
C136        C543   1.373   1_554  D
C136        C205   1.551       .  S
H140        C543   1.084       .  S
C141        C142   1.502       .  S
C141        C147   1.552       .  S
C141        C145   1.526       .  S
C141        C173   1.519       .  S
C142        H149   1.078       .  S
C142        C551   1.344       .  D
C143        C144   1.570       .  S
C143        C550   1.345       .  D
C143        C475   1.480       .  S
C144        C148   1.574       .  S
C144        C146   1.573       .  S
C144        H150   1.100       .  S
C145        H151   1.078       .  S
C145        C554   1.355       .  D
C146        C553   1.355       .  D
C146        C516   1.493       .  S
C147        H560   1.084       .  S
C147        C556   1.378   1_554  D
C148        C555   1.377       .  D
C148        C157   1.552       .  S
H152        C555   1.084       .  S
C153        C154   1.407       .  A
C153        C158   1.420       .  A
C153        H160   1.085       .  S
C154        C155   1.415       .  A
C155        C162   1.506       .  S
C155        C156   1.418       .  A
C156        C157   1.422       .  A
C156        H161   1.083       .  S
C157        C158   1.437       .  A
C158        C159   1.506       .  S
C159        H163   1.111       .  S
C159        H164   1.089       .  S
C159        H165   1.111       .  S
C162        H166   1.110       .  S
C162        H167   1.111       .  S
C162        H168   1.111       .  S
C169        C170   1.399       .  A
C169        C174   1.392       .  A
C169        H176   1.086       .  S
C170        C171   1.414       .  A
C171        C178   1.509       .  S
C171        C172   1.396       .  A
C172        C173   1.408       .  A
C172        H177   1.083       .  S
C173        C174   1.420       .  A
C174        C175   1.509       .  S
C175        H179   1.111       .  S
C175        H180   1.111       .  S
C175        H181   1.106       .  S
C178        H182   1.102       .  S
C178        H183   1.110       .  S
C178        H184   1.110       .  S
C185        C186   1.396       .  A
C185        C190   1.398       .  A
C185        H192   1.085       .  S
C186        C187   1.400       .  A
C187        C194   1.510       .  S
C187        C188   1.388       .  A
C188        C189   1.417       .  A
C188        H193   1.084       .  S
C189        C190   1.422       .  A
C190        C191   1.501       .  S
C191        H195   1.111       .  S
C191        H196   1.109       .  S
C191        H197   1.107       .  S
C194        H198   1.109       .  S
C194        H199   1.111       .  S
C194        H200   1.111       .  S
C201        C202   1.406       .  A
C201        C206   1.428       .  A
C201        H208   1.084       .  S
C202        C203   1.406       .  A
C203        C210   1.504       .  S
C203        C204   1.408       .  A
C204        C205   1.421       .  A
C204        H209   1.079       .  S
C205        C206   1.435       .  A
C206        C207   1.505       .  S
C207        H211   1.111       .  S
C207        H212   1.099       .  S
C207        H213   1.109       .  S
C210        H214   1.104       .  S
C210        H215   1.106       .  S
C210        H216   1.111       .  S
C217        C218   1.410       .  A
C217        C222   1.416       .  A
C217        H224   1.084       .  S
C218        C219   1.422       .  A
C219        C226   1.500       .  S
C219        C220   1.406       .  A
C220        C221   1.401       .  A
C220        H225   1.082       .  S
C221        C222   1.419       .  A
C222        C223   1.503       .  S
C223        H227   1.111       .  S
C223        H228   1.106       .  S
C223        H229   1.110       .  S
C226        H230   1.109       .  S
C226        H231   1.102       .  S
C226        H232   1.111       .  S
C233        C234   1.390       .  A
C233        C238   1.386       .  A
C233        H240   1.086       .  S
C234        C235   1.402       .  A
C235        C242   1.508       .  S
C235        C236   1.396       .  A
C236        C237   1.413       .  A
C236        H241   1.075       .  S
C237        C238   1.434       .  A
C238        C239   1.524       .  S
C239        H243   1.111       .  S
C239        H244   1.104       .  S
C239        H653   1.104       .  S
C242        H246   1.110       .  S
C242        H247   1.111       .  S
C242        H248   1.111       .  S
H245        C647   1.104       .  S
C249        C250   1.404       .  A
C249        C254   1.412       .  A
C249        H256   1.084       .  S
C250        C251   1.423       .  A
C251        C258   1.507       .  S
C251        C252   1.417       .  A
C252        C253   1.407       .  A
C252        H257   1.077       .  S
C253        C254   1.426       .  A
C254        C255   1.508       .  S
C255        H259   1.111       .  S
C255        H261   1.109       .  S
C255        H668   1.110       .  S
C258        H262   1.106       .  S
C258        H263   1.111       .  S
C258        H264   1.109       .  S
H260        C663   1.110       .  S
C265        C266   1.390       .  A
C265        C270   1.386       .  A
C265        H272   1.085       .  S
C266        C267   1.404       .  A
C267        C274   1.510       .  S
C267        C268   1.394       .  A
C268        C269   1.411       .  A
C268        H273   1.076       .  S
C269        C270   1.432       .  A
C270        C271   1.520       .  S
C271        H275   1.110       .  S
C271        H277   1.104       .  S
C271        H684   1.105       .  S
C274        H278   1.108       .  S
C274        H279   1.111       .  S
C274        H280   1.109       .  S
H276        C679   1.105       .  S
C281        C282   1.417       .  A
C281        C286   1.415       .  A
C281        H288   1.084       .  S
C282        C283   1.432       .  A
C283        C290   1.501       .  S
C283        C284   1.424       .  A
C284        C285   1.406       .  A
C284        H289   1.084       .  S
C285        C286   1.415       .  A
C286        C287   1.506       .  S
C287        H291   1.111       .  S
C287        H292   1.111       .  S
C287        H293   1.109       .  S
C290        H294   1.111       .  S
C290        H295   1.095       .  S
C290        H296   1.111       .  S
C297        C298   1.399       .  A
C297        C302   1.393       .  A
C297        H304   1.085       .  S
C298        C299   1.404       .  A
C299        C306   1.507       .  S
C299        C300   1.392       .  A
C300        C301   1.411       .  A
C300        H305   1.080       .  S
C301        C302   1.419       .  A
C302        C303   1.511       .  S
C303        H307   1.111       .  S
C303        H308   1.105       .  S
C303        H309   1.110       .  S
C306        H310   1.111       .  S
C306        H311   1.103       .  S
C306        H312   1.111       .  S
C313        C314   1.404       .  A
C313        C318   1.417       .  A
C313        H320   1.084       .  S
C314        C315   1.421       .  A
C315        C322   1.507       .  S
C315        C316   1.419       .  A
C316        C317   1.410       .  A
C316        H321   1.078       .  S
C317        C318   1.430       .  A
C318        C319   1.508       .  S
C319        H323   1.111       .  S
C319        H324   1.110       .  S
C319        H325   1.108       .  S
C322        H326   1.108       .  S
C322        H327   1.110       .  S
C322        H328   1.111       .  S
C329        C330   1.406       .  A
C329        C334   1.390       .  A
C329        H336   1.082       .  S
C330        C331   1.418       .  A
C331        C338   1.508       .  S
C331        C332   1.393       .  A
C332        C333   1.399       .  A
C332        H337   1.085       .  S
C333        C334   1.411       .  A
C334        C335   1.510       .  S
C335        H339   1.111       .  S
C335        H340   1.111       .  S
C335        H341   1.110       .  S
C338        H342   1.110       .  S
C338        H343   1.106       .  S
C338        H344   1.111       .  S
C345        C346   1.404       .  A
C345        C350   1.423       .  A
C345        H352   1.084       .  S
C346        C347   1.405       .  A
C347        C354   1.508       .  S
C347        C348   1.409       .  A
C348        C349   1.424       .  A
C348        H353   1.079       .  S
C349        C350   1.431       .  A
C350        C351   1.501       .  S
C351        H355   1.111       .  S
C351        H356   1.099       .  S
C351        H357   1.108       .  S
C354        H358   1.110       .  S
C354        H359   1.108       .  S
C354        H360   1.111       .  S
C361        C362   1.397       .  A
C361        C366   1.393       .  A
C361        H368   1.085       .  S
C362        C363   1.408       .  A
C363        C370   1.509       .  S
C363        C364   1.392       .  A
C364        C365   1.407       .  A
C364        H369   1.082       .  S
C365        C366   1.420       .  A
C366        C367   1.509       .  S
C367        H371   1.111       .  S
C367        H372   1.111       .  S
C367        H373   1.106       .  S
C370        H374   1.111       .  S
C370        H375   1.110       .  S
C370        H376   1.111       .  S
C377        C378   1.391       .  A
C377        C382   1.391       .  A
C377        H384   1.085       .  S
C378        C379   1.408       .  A
C379        C386   1.510       .  S
C379        C380   1.395       .  A
C380        C381   1.408       .  A
C380        H385   1.075       .  S
C381        C382   1.434       .  A
C382        C383   1.516       .  S
C383        H387   1.111       .  S
C383        H388   1.104       .  S
C383        H389   1.101       .  S
C386        H390   1.109       .  S
C386        H391   1.110       .  S
C386        H392   1.111       .  S
C393        C394   1.405       .  A
C393        C398   1.418       .  A
C393        H400   1.080       .  S
C394        C395   1.420       .  A
C395        C402   1.507       .  S
C395        C396   1.408       .  A
C396        C397   1.407       .  A
C396        H401   1.079       .  S
C397        C398   1.424       .  A
C398        C399   1.505       .  S
C399        H403   1.110       .  S
C399        H404   1.109       .  S
C399        H405   1.110       .  S
C402        H406   1.110       .  S
C402        H407   1.104       .  S
C402        H408   1.110       .  S
O409       Ni417   1.931       .  S
O409        C419   1.282       .  A
O410      Ni1233   1.922   1_545  S
O410        C420   1.283       .  A
O411      Ni1233   1.898   1_545  S
O411        C421   1.279       .  A
O412       Ni417   1.895       .  S
O412        C422   1.278       .  A
O413      Ni1234   1.893       .  S
O413        C422   1.275       .  A
O414       Ni418   1.886       .  S
O414        C421   1.274       .  A
O415       Ni418   1.948       .  S
O415        C420   1.288       .  A
O416      Ni1234   1.942       .  S
O416        C419   1.286       .  A
Ni417      O1226   1.933       .  S
Ni417      O1227   1.899       .  S
Ni417     Ni1234   2.386       .  S
Ni418      O1229   1.890   1_545  S
Ni418      O1232   1.952   1_545  S
Ni418     Ni1233   2.388   1_545  S
C419        C754   1.504       .  S
C420        C805   1.513       .  S
C421        C786   1.453       .  S
C422        C770   1.449       .  S
C423        C424   1.535       .  S
C423        C429   1.540       .  S
C423        C427   1.521       .  S
C423        C789   1.520       .  S
C424        H431   1.081       .  S
C425        C426   1.558       .  S
C426        C430   1.553       .  S
C426        C428   1.559       .  S
C426        H432   1.111       .  S
C427        H433   1.071       .  S
C430        C802   1.505       .  S
C435        C436   1.503       .  S
C435        C441   1.548       .  S
C435        C439   1.535       .  S
C435        C773   1.518       .  S
C436        H443   1.082       .  S
C437        C438   1.566   1_554  S
C438        C442   1.570       .  S
C438        C440   1.571   1_556  S
C438        H444   1.098       .  S
C439        H445   1.087       .  S
C442        C757   1.548       .  S
O447      Ni1271   1.886       .  S
O447        C457   1.274       .  A
O448       Ni455   1.878       .  S
O448        C458   1.272       .  A
O449       Ni455   1.963       .  S
O449        C459   1.291       .  A
O450      Ni1271   1.957       .  S
O450        C460   1.290       .  A
O451      Ni1272   1.933       .  S
O451        C460   1.283       .  A
O452       Ni456   1.935       .  S
O452        C459   1.283       .  A
O453       Ni456   1.905       .  S
O453        C458   1.280       .  A
O454      Ni1272   1.902       .  S
O454        C457   1.280       .  A
Ni455      O1263   1.884       .  S
Ni455      O1266   1.960       .  S
Ni455      Ni456   2.387       .  S
Ni456      O1267   1.934       .  S
Ni456      O1270   1.900       .  S
C457        C741   1.457       .  S
C458        C706   1.449       .  S
C459        C693   1.515       .  S
C460        C722   1.512       .  S
C461        C462   1.508       .  S
C461        C467   1.558       .  S
C461        C465   1.515       .  S
C461        C738   1.515       .  S
C462        H469   1.084       .  S
C463        C464   1.566   1_554  S
C464        C468   1.557       .  S
C464        C466   1.577   1_556  S
C464        H470   1.108       .  S
C465        H471   1.083       .  S
C468        C725   1.536       .  S
C473        C474   1.510       .  S
C473        C479   1.544   1_556  S
C473        C477   1.528       .  S
C473        C709   1.512       .  S
C474        H481   1.088       .  S
C475        C476   1.580       .  S
C476        C480   1.570       .  S
C476        C478   1.562       .  S
C476        H482   1.106       .  S
C477        H483   1.080       .  S
C480        C690   1.544       .  S
O485      Ni2125   1.901       .  S
O485        C495   1.278       .  A
O486       Ni493   1.903       .  S
O486        C496   1.277       .  A
O487       Ni493   1.946       .  S
O487        C497   1.287       .  A
O488      Ni2125   1.945       .  S
O488        C498   1.288       .  A
O489      Ni2126   1.930       .  S
O489        C498   1.283       .  A
O490       Ni494   1.929       .  S
O490        C497   1.284       .  A
O491       Ni494   1.881       .  S
O491        C496   1.276       .  A
O492      Ni2126   1.882       .  S
O492        C495   1.275       .  A
Ni493      O2117   1.902       .  S
Ni493      O2120   1.945       .  S
Ni493      Ni494   2.388       .  S
Ni494      O2121   1.930       .  S
Ni494      O2124   1.881       .  S
C495        C674   1.446       .  S
C496        C642   1.450       .  S
C497        C626   1.514       .  S
C498        C658   1.505       .  S
C499        C500   1.534       .  S
C499        C505   1.537       .  S
C499        C503   1.520       .  S
C499        C677   1.519       .  S
C500        H507   1.077       .  S
C501        C502   1.563   1_554  S
C502        C506   1.558       .  S
C502        C504   1.572   1_556  S
C502        H508   1.110       .  S
C503        H509   1.085       .  S
C506        C661   1.523       .  S
C511        C512   1.537       .  S
C511        C517   1.530       .  S
C511        C515   1.523       .  S
C511        C645   1.514       .  S
C512        H519   1.081       .  S
C513        C514   1.569       .  S
C514        C518   1.564       .  S
C514        C516   1.555       .  S
C514        H520   1.110       .  S
C515        H521   1.070       .  S
C518        C629   1.503       .  S
O523       Ni531   1.934       .  S
O523        C533   1.284       .  A
O524      Ni2163   1.934   1_455  S
O524        C534   1.283       .  A
O525      Ni2163   1.901   1_455  S
O525        C535   1.278       .  A
O526       Ni531   1.898       .  S
O526        C536   1.279       .  A
O527       Ni532   1.900       .  S
O527        C536   1.274       .  A
O528      Ni2164   1.886       .  S
O528        C535   1.275       .  A
O529      Ni2164   1.958       .  S
O529        C534   1.289       .  A
O530       Ni532   1.959       .  S
O530        C533   1.291       .  A
Ni531      O2156   1.934       .  S
Ni531      O2157   1.901       .  S
Ni531      Ni532   2.386       .  S
Ni532      O2160   1.887       .  S
Ni532      O2161   1.957       .  S
C533        C562   1.518       .  S
C534        C610   1.507       .  S
C535        C594   1.450       .  S
C536        C578   1.460       .  S
C537        C538   1.521       .  S
C537        C543   1.548       .  S
C537        C541   1.521       .  S
C537        C597   1.527       .  S
C538        H545   1.074       .  S
C539        C540   1.585       .  S
C540        C544   1.571       .  S
C540        C542   1.566       .  S
C540        H546   1.103       .  S
C541        H547   1.075       .  S
C544        C613   1.551       .  S
C549        C550   1.502       .  S
C549        C555   1.552       .  S
C549        C553   1.528       .  S
C549        C581   1.519       .  S
C550        H557   1.079       .  S
C551        C552   1.568   1_554  S
C552        C556   1.577       .  S
C552        C554   1.572   1_556  S
C552        H558   1.099       .  S
C553        H559   1.079       .  S
C556        C565   1.557       .  S
C561        C562   1.406       .  A
C561        C566   1.422       .  A
C561        H568   1.085       .  S
C562        C563   1.413       .  A
C563        C570   1.507       .  S
C563        C564   1.418       .  A
C564        C565   1.424       .  A
C564        H569   1.082       .  S
C565        C566   1.439       .  A
C566        C567   1.505       .  S
C567        H571   1.111       .  S
C567        H572   1.087       .  S
C567        H573   1.111       .  S
C570        H574   1.110       .  S
C570        H575   1.111       .  S
C570        H576   1.111       .  S
C577        C578   1.399       .  A
C577        C582   1.393       .  A
C577        H584   1.085       .  S
C578        C579   1.413       .  A
C579        C586   1.509       .  S
C579        C580   1.396       .  A
C580        C581   1.407       .  A
C580        H585   1.082       .  S
C581        C582   1.420       .  A
C582        C583   1.510       .  S
C583        H587   1.111       .  S
C583        H588   1.110       .  S
C583        H589   1.106       .  S
C586        H590   1.103       .  S
C586        H591   1.110       .  S
C586        H592   1.110       .  S
C593        C594   1.397       .  A
C593        C598   1.399       .  A
C593        H600   1.085       .  S
C594        C595   1.400       .  A
C595        C602   1.510       .  S
C595        C596   1.387       .  A
C596        C597   1.418       .  A
C596        H601   1.085       .  S
C597        C598   1.424       .  A
C598        C599   1.503       .  S
C599        H603   1.111       .  S
C599        H604   1.109       .  S
C599        H605   1.108       .  S
C602        H606   1.109       .  S
C602        H607   1.111       .  S
C602        H608   1.111       .  S
C609        C610   1.408       .  A
C609        C614   1.430       .  A
C609        H616   1.084       .  S
C610        C611   1.405       .  A
C611        C618   1.506       .  S
C611        C612   1.406       .  A
C612        C613   1.421       .  A
C612        H617   1.080       .  S
C613        C614   1.434       .  A
C614        C615   1.504       .  S
C615        H619   1.111       .  S
C615        H620   1.098       .  S
C615        H621   1.109       .  S
C618        H622   1.104       .  S
C618        H623   1.107       .  S
C618        H624   1.111       .  S
C625        C626   1.411       .  A
C625        C630   1.417       .  A
C625        H632   1.084       .  S
C626        C627   1.422       .  A
C627        C634   1.501       .  S
C627        C628   1.406       .  A
C628        C629   1.400       .  A
C628        H633   1.081       .  S
C629        C630   1.419       .  A
C630        C631   1.504       .  S
C631        H635   1.110       .  S
C631        H636   1.106       .  S
C631        H637   1.110       .  S
C634        H638   1.109       .  S
C634        H639   1.105       .  S
C634        H640   1.111       .  S
C641        C642   1.391       .  A
C641        C646   1.386       .  A
C641        H648   1.086       .  S
C642        C643   1.405       .  A
C643        C650   1.508       .  S
C643        C644   1.398       .  A
C644        C645   1.411       .  A
C644        H649   1.076       .  S
C645        C646   1.435       .  A
C646        C647   1.526       .  S
C647        H651   1.111       .  S
C647        H652   1.104       .  S
C650        H654   1.110       .  S
C650        H655   1.111       .  S
C650        H656   1.111       .  S
C657        C658   1.403       .  A
C657        C662   1.411       .  A
C657        H664   1.084       .  S
C658        C659   1.422       .  A
C659        C666   1.508       .  S
C659        C660   1.416       .  A
C660        C661   1.406       .  A
C660        H665   1.077       .  S
C661        C662   1.426       .  A
C662        C663   1.508       .  S
C663        H667   1.111       .  S
C663        H669   1.109       .  S
C666        H670   1.107       .  S
C666        H671   1.111       .  S
C666        H672   1.109       .  S
C673        C674   1.390       .  A
C673        C678   1.387       .  A
C673        H680   1.086       .  S
C674        C675   1.405       .  A
C675        C682   1.510       .  S
C675        C676   1.397       .  A
C676        C677   1.413       .  A
C676        H681   1.076       .  S
C677        C678   1.432       .  A
C678        C679   1.519       .  S
C679        H683   1.110       .  S
C679        H685   1.103       .  S
C682        H686   1.108       .  S
C682        H687   1.111       .  S
C682        H688   1.108       .  S
C689        C690   1.416       .  A
C689        C694   1.414       .  A
C689        H696   1.083       .  S
C690        C691   1.434       .  A
C691        C698   1.501       .  S
C691        C692   1.425       .  A
C692        C693   1.406       .  A
C692        H697   1.085       .  S
C693        C694   1.415       .  A
C694        C695   1.505       .  S
C695        H699   1.111       .  S
C695        H700   1.111       .  S
C695        H701   1.108       .  S
C698        H702   1.111       .  S
C698        H703   1.094       .  S
C698        H704   1.111       .  S
C705        C706   1.398       .  A
C705        C710   1.391       .  A
C705        H712   1.085       .  S
C706        C707   1.402       .  A
C707        C714   1.507       .  S
C707        C708   1.391       .  A
C708        C709   1.410       .  A
C708        H713   1.078       .  S
C709        C710   1.419       .  A
C710        C711   1.511       .  S
C711        H715   1.111       .  S
C711        H716   1.105       .  S
C711        H717   1.110       .  S
C714        H718   1.111       .  S
C714        H719   1.105       .  S
C714        H720   1.110       .  S
C721        C722   1.405       .  A
C721        C726   1.417       .  A
C721        H728   1.084       .  S
C722        C723   1.421       .  A
C723        C730   1.508       .  S
C723        C724   1.418       .  A
C724        C725   1.409       .  A
C724        H729   1.078       .  S
C725        C726   1.429       .  A
C726        C727   1.508       .  S
C727        H731   1.111       .  S
C727        H732   1.110       .  S
C727        H733   1.108       .  S
C730        H734   1.107       .  S
C730        H735   1.110       .  S
C730        H736   1.111       .  S
C737        C738   1.406       .  A
C737        C742   1.389       .  A
C737        H744   1.082       .  S
C738        C739   1.418       .  A
C739        C746   1.508       .  S
C739        C740   1.394       .  A
C740        C741   1.400       .  A
C740        H745   1.085       .  S
C741        C742   1.412       .  A
C742        C743   1.510       .  S
C743        H747   1.111       .  S
C743        H748   1.111       .  S
C743        H749   1.110       .  S
C746        H750   1.111       .  S
C746        H751   1.107       .  S
C746        H752   1.111       .  S
C753        C754   1.405       .  A
C753        C758   1.421       .  A
C753        H760   1.082       .  S
C754        C755   1.408       .  A
C755        C762   1.509       .  S
C755        C756   1.410       .  A
C756        C757   1.423       .  A
C756        H761   1.079       .  S
C757        C758   1.432       .  A
C758        C759   1.506       .  S
C759        H763   1.111       .  S
C759        H764   1.106       .  S
C759        H765   1.101       .  S
C762        H766   1.110       .  S
C762        H767   1.111       .  S
C762        H768   1.111       .  S
C769        C770   1.397       .  A
C769        C774   1.394       .  A
C769        H776   1.085       .  S
C770        C771   1.406       .  A
C771        C778   1.509       .  S
C771        C772   1.391       .  A
C772        C773   1.408       .  A
C772        H777   1.080       .  S
C773        C774   1.421       .  A
C774        C775   1.509       .  S
C775        H779   1.111       .  S
C775        H780   1.110       .  S
C775        H781   1.106       .  S
C778        H782   1.111       .  S
C778        H783   1.110       .  S
C778        H784   1.111       .  S
C785        C786   1.391       .  A
C785        C790   1.389       .  A
C785        H792   1.085       .  S
C786        C787   1.407       .  A
C787        C794   1.511       .  S
C787        C788   1.395       .  A
C788        C789   1.410       .  A
C788        H793   1.075       .  S
C789        C790   1.432       .  A
C790        C791   1.517       .  S
C791        H795   1.111       .  S
C791        H796   1.104       .  S
C791        H797   1.102       .  S
C794        H798   1.109       .  S
C794        H799   1.110       .  S
C794        H800   1.111       .  S
C801        C802   1.406       .  A
C801        C806   1.418       .  A
C801        H808   1.080       .  S
C802        C803   1.419       .  A
C803        C810   1.507       .  S
C803        C804   1.405       .  A
C804        C805   1.408       .  A
C804        H809   1.082       .  S
C805        C806   1.422       .  A
C806        C807   1.505       .  S
C807        H811   1.110       .  S
C807        H812   1.110       .  S
C807        H813   1.110       .  S
C810        H814   1.110       .  S
C810        H815   1.104       .  S
C810        H816   1.110       .  S
O817       Ni825   1.932       .  S
O817        C827   1.282       .  A
O818        C828   1.283       .  A
O819        C829   1.279       .  A
O820       Ni825   1.894       .  S
O820        C830   1.278       .  A
O821        C830   1.275       .  A
O822       Ni826   1.887       .  S
O822        C829   1.274       .  A
O823       Ni826   1.947       .  S
O823        C828   1.287       .  A
O824        C827   1.287       .  A
C827       C1162   1.506       .  S
C828       C1213   1.512       .  S
C829       C1194   1.454       .  S
C830       C1178   1.449       .  S
C831        C832   1.534       .  S
C831        C837   1.540       .  S
C831        C835   1.522       .  S
C831       C1197   1.521       .  S
C832        H839   1.081       .  S
C832       C1241   1.359       .  D
C833        C834   1.557   1_556  S
C833       C1240   1.362       .  D
C833       C1317   1.479   1_556  S
C834        C838   1.552       .  S
C834        C836   1.559   1_554  S
C834        H840   1.111       .  S
C835        H841   1.070       .  S
C835       C1244   1.351       .  D
C836       C1243   1.353       .  D
C836       C1282   1.487   1_556  S
C837       H1250   1.086       .  S
C837       C1246   1.358       .  D
C838       C1245   1.355   1_554  D
C838       C1210   1.504       .  S
H842       C1245   1.086       .  S
C843        C844   1.501       .  S
C843        C849   1.548       .  S
C843        C847   1.534       .  S
C843       C1181   1.516       .  S
C844        H851   1.081       .  S
C844       C1253   1.347       .  D
C845        C846   1.567       .  S
C845       C1252   1.350       .  D
C845       C1355   1.486       .  S
C846        C850   1.570       .  S
C846        C848   1.571       .  S
C846        H852   1.098       .  S
C847        H853   1.087       .  S
C847       C1256   1.356       .  D
C848       C1255   1.355       .  D
C848       C1294   1.490       .  S
C849       H1262   1.076       .  S
C849       C1258   1.375   1_554  D
C850       C1257   1.375       .  D
C850       C1165   1.549       .  S
H854       C1257   1.079       .  S
O855        C865   1.274       .  A
O856       Ni863   1.880   1_565  S
O856        C866   1.273       .  A
O857       Ni863   1.964   1_565  S
O857        C867   1.291       .  A
O858        C868   1.290       .  A
O859        C868   1.283       .  A
O860       Ni864   1.933   1_565  S
O860        C867   1.283       .  A
O861       Ni864   1.904   1_565  S
O861        C866   1.280       .  A
O862        C865   1.280       .  A
Ni863      Ni864   2.387       .  S
C865       C1149   1.458       .  S
C866       C1114   1.450       .  S
C867       C1101   1.515       .  S
C868       C1130   1.514       .  S
C869        C870   1.508       .  S
C869        C875   1.559       .  S
C869        C873   1.515       .  S
C869       C1146   1.516       .  S
C870        H877   1.084       .  S
C870       C1279   1.352       .  D
C871        C872   1.568       .  S
C871       C1278   1.352       .  D
C871       C1329   1.482       .  S
C872        C876   1.557       .  S
C872        C874   1.578       .  S
C872        H878   1.109       .  S
C873        H879   1.083       .  S
C873       C1282   1.356       .  D
C874       C1281   1.356       .  D
C874       C1244   1.490       .  S
C875       H1288   1.083       .  S
C875       C1284   1.367   1_554  D
C876       C1283   1.366       .  D
C876       C1133   1.537       .  S
H880       C1283   1.083       .  S
C881        C882   1.510       .  S
C881        C887   1.543       .  S
C881        C885   1.530       .  S
C881       C1117   1.512       .  S
C882        H889   1.088       .  S
C882       C1291   1.348       .  D
C883        C884   1.580   1_556  S
C883       C1290   1.350       .  D
C883       C1367   1.480   1_556  S
C884        C888   1.571       .  S
C884        C886   1.563   1_554  S
C884        H890   1.106       .  S
C885        H891   1.080       .  S
C885       C1294   1.356       .  D
C886       C1293   1.354       .  D
C886       C1256   1.491   1_556  S
C887       H1300   1.086       .  S
C887       C1296   1.371       .  D
C888       C1295   1.373       .  D
C888       C1098   1.544       .  S
H892       C1295   1.085       .  S
O893      Ni2533   1.901       .  S
O893        C903   1.278       .  A
O894       Ni901   1.901       .  S
O894        C904   1.276       .  A
O895       Ni901   1.946       .  S
O895        C905   1.287       .  A
O896      Ni2533   1.946       .  S
O896        C906   1.288       .  A
O897      Ni2534   1.931       .  S
O897        C906   1.284       .  A
O898       Ni902   1.928       .  S
O898        C905   1.283       .  A
O899       Ni902   1.878       .  S
O899        C904   1.276       .  A
O900      Ni2534   1.881       .  S
O900        C903   1.274       .  A
Ni901      O2525   1.901       .  S
Ni901      O2528   1.946       .  S
Ni901      Ni902   2.389       .  S
Ni902      O2529   1.930       .  S
Ni902      O2532   1.880       .  S
C903       C1082   1.444       .  S
C904       C1050   1.447       .  S
C905       C1034   1.513       .  S
C906       C1066   1.506       .  S
C907        C908   1.535       .  S
C907        C913   1.535   1_554  S
C907        C911   1.519       .  S
C907       C1085   1.518       .  S
C908        H915   1.076       .  S
C908       C1317   1.362       .  D
C909        C910   1.563       .  S
C909       C1316   1.362       .  D
C909       C1241   1.479       .  S
C910        C914   1.559       .  S
C910        C912   1.571       .  S
C910        H916   1.110       .  S
C911        H917   1.085       .  S
C911       C1320   1.352       .  D
C912       C1319   1.350       .  D
C912       C1358   1.490       .  S
C913       H1326   1.082       .  S
C913       C1322   1.360       .  D
C914       C1321   1.360       .  D
C914       C1069   1.524       .  S
H918       C1321   1.083       .  S
C919        C920   1.537       .  S
C919        C925   1.530       .  S
C919        C923   1.523       .  S
C919       C1053   1.513       .  S
C920        H927   1.081       .  S
C920       C1329   1.366       .  D
C921        C922   1.569   1_556  S
C921       C1328   1.364       .  D
C921       C1279   1.483   1_556  S
C922        C926   1.564       .  S
C922        C924   1.556       .  S
C922        H928   1.110       .  S
C923        H929   1.070       .  S
C923       C1332   1.349       .  D
C924       C1331   1.348   1_554  D
C924       C1370   1.494       .  S
C925       H1338   1.087       .  S
C925       C1334   1.349       .  D
C926       C1333   1.351       .  D
C926       C1037   1.503       .  S
H930       C1333   1.086       .  S
O931       Ni939   1.933       .  S
O931        C941   1.283       .  A
O932      Ni2571   1.932   1_455  S
O932        C942   1.282       .  A
O933      Ni2571   1.899   1_455  S
O933        C943   1.278       .  A
O934       Ni939   1.897       .  S
O934        C944   1.279       .  A
O935       Ni940   1.899       .  S
O935        C944   1.274       .  A
O936      Ni2572   1.887       .  S
O936        C943   1.275       .  A
O937      Ni2572   1.958       .  S
O937        C942   1.289       .  A
O938       Ni940   1.958       .  S
O938        C941   1.291       .  A
Ni939      O2564   1.932       .  S
Ni939      O2565   1.899       .  S
Ni939      Ni940   2.387       .  S
Ni940      O2568   1.886       .  S
Ni940      O2569   1.957       .  S
C941        C970   1.517       .  S
C942       C1018   1.506       .  S
C943       C1002   1.450       .  S
C944        C986   1.458       .  S
C945        C946   1.521       .  S
C945        C951   1.547       .  S
C945        C949   1.521       .  S
C945       C1005   1.527       .  S
C946        H953   1.074       .  S
C946       C1355   1.359       .  D
C947        C948   1.584   1_556  S
C947       C1354   1.362       .  D
C947       C1253   1.490   1_556  S
C948        C952   1.570       .  S
C948        C950   1.564   1_554  S
C948        H954   1.103       .  S
C949        H955   1.075       .  S
C949       C1358   1.346       .  D
C950       C1357   1.345       .  D
C950       C1320   1.491   1_556  S
C951       H1364   1.084       .  S
C951       C1360   1.372       .  D
C952       C1359   1.371   1_554  D
C952       C1021   1.550       .  S
H956       C1359   1.084       .  S
C957        C958   1.502       .  S
C957        C963   1.551       .  S
C957        C961   1.527       .  S
C957        C989   1.518       .  S
C958        H965   1.079       .  S
C958       C1367   1.345       .  D
C959        C960   1.568       .  S
C959       C1366   1.343       .  D
C959       C1291   1.478       .  S
C960        C964   1.576       .  S
C960        C962   1.572       .  S
C960        H966   1.099       .  S
C961        H967   1.078       .  S
C961       C1370   1.355       .  D
C962       C1369   1.355       .  D
C962       C1332   1.492       .  S
C963       H1376   1.084       .  S
C963       C1372   1.376   1_554  D
C964       C1371   1.378       .  D
C964        C973   1.556       .  S
H968       C1371   1.084       .  S
C969        C970   1.406       .  A
C969        C974   1.421       .  A
C969        H976   1.085       .  S
C970        C971   1.413       .  A
C971        C978   1.507       .  S
C971        C972   1.417       .  A
C972        C973   1.423       .  A
C972        H977   1.082       .  S
C973        C974   1.440       .  A
C974        C975   1.506       .  S
C975        H979   1.111       .  S
C975        H980   1.088       .  S
C975        H981   1.111       .  S
C978        H982   1.110       .  S
C978        H983   1.111       .  S
C978        H984   1.111       .  S
C985        C986   1.398       .  A
C985        C990   1.393       .  A
C985        H992   1.085       .  S
C986        C987   1.413       .  A
C987        C994   1.509       .  S
C987        C988   1.396       .  A
C988        C989   1.408       .  A
C988        H993   1.082       .  S
C989        C990   1.420       .  A
C990        C991   1.509       .  S
C991        H995   1.111       .  S
C991        H996   1.111       .  S
C991        H997   1.106       .  S
C994        H998   1.103       .  S
C994        H999   1.110       .  S
C994       H1000   1.111       .  S
C1001      C1002   1.397       .  A
C1001      C1006   1.399       .  A
C1001      H1008   1.085       .  S
C1002      C1003   1.400       .  A
C1003      C1010   1.511       .  S
C1003      C1004   1.387       .  A
C1004      C1005   1.418       .  A
C1004      H1009   1.085       .  S
C1005      C1006   1.424       .  A
C1006      C1007   1.503       .  S
C1007      H1011   1.111       .  S
C1007      H1012   1.109       .  S
C1007      H1013   1.109       .  S
C1010      H1014   1.109       .  S
C1010      H1015   1.111       .  S
C1010      H1016   1.111       .  S
C1017      C1018   1.408       .  A
C1017      C1022   1.430       .  A
C1017      H1024   1.084       .  S
C1018      C1019   1.406       .  A
C1019      C1026   1.506       .  S
C1019      C1020   1.406       .  A
C1020      C1021   1.420       .  A
C1020      H1025   1.080       .  S
C1021      C1022   1.434       .  A
C1022      C1023   1.505       .  S
C1023      H1027   1.111       .  S
C1023      H1028   1.098       .  S
C1023      H1029   1.109       .  S
C1026      H1030   1.104       .  S
C1026      H1031   1.108       .  S
C1026      H1032   1.111       .  S
C1033      C1034   1.411       .  A
C1033      C1038   1.417       .  A
C1033      H1040   1.084       .  S
C1034      C1035   1.422       .  A
C1035      C1042   1.501       .  S
C1035      C1036   1.405       .  A
C1036      C1037   1.400       .  A
C1036      H1041   1.081       .  S
C1037      C1038   1.420       .  A
C1038      C1039   1.504       .  S
C1039      H1043   1.110       .  S
C1039      H1044   1.106       .  S
C1039      H1045   1.110       .  S
C1042      H1046   1.109       .  S
C1042      H1047   1.105       .  S
C1042      H1048   1.111       .  S
C1049      C1050   1.390       .  A
C1049      C1054   1.385       .  A
C1049      H1056   1.086       .  S
C1050      C1051   1.403       .  A
C1051      C1058   1.508       .  S
C1051      C1052   1.397       .  A
C1052      C1053   1.411       .  A
C1052      H1057   1.076       .  S
C1053      C1054   1.435       .  A
C1054      C1055   1.526       .  S
C1055      H1059   1.111       .  S
C1055      H1060   1.104       .  S
C1055      H1469   1.104       .  S
C1058      H1062   1.110       .  S
C1058      H1063   1.111       .  S
C1058      H1064   1.111       .  S
H1061      C1463   1.104       .  S
C1065      C1066   1.404       .  A
C1065      C1070   1.412       .  A
C1065      H1072   1.084       .  S
C1066      C1067   1.422       .  A
C1067      C1074   1.507       .  S
C1067      C1068   1.416       .  A
C1068      C1069   1.406       .  A
C1068      H1073   1.077       .  S
C1069      C1070   1.426       .  A
C1070      C1071   1.508       .  S
C1071      H1075   1.111       .  S
C1071      H1484   1.110       .  S
C1071      H1077   1.109       .  S
C1074      H1078   1.107       .  S
C1074      H1079   1.111       .  S
C1074      H1080   1.109       .  S
H1076      C1479   1.110       .  S
C1081      C1082   1.390       .  A
C1081      C1086   1.388       .  A
C1081      H1088   1.086       .  S
C1082      C1083   1.404       .  A
C1083      C1090   1.510       .  S
C1083      C1084   1.396       .  A
C1084      C1085   1.412       .  A
C1084      H1089   1.076       .  S
C1085      C1086   1.432       .  A
C1086      C1087   1.519       .  S
C1087      H1091   1.110       .  S
C1087      H1500   1.106       .  S
C1087      H1093   1.104       .  S
C1090      H1094   1.108       .  S
C1090      H1095   1.111       .  S
C1090      H1096   1.108       .  S
H1092      C1495   1.105       .  S
C1097      C1098   1.416       .  A
C1097      C1102   1.414       .  A
C1097      H1104   1.083       .  S
C1098      C1099   1.434       .  A
C1099      C1106   1.501       .  S
C1099      C1100   1.425       .  A
C1100      C1101   1.406       .  A
C1100      H1105   1.085       .  S
C1101      C1102   1.415       .  A
C1102      C1103   1.505       .  S
C1103      H1107   1.111       .  S
C1103      H1108   1.111   1_565  S
C1103      H1109   1.108       .  S
C1106      H1110   1.111       .  S
C1106      H1111   1.094       .  S
C1106      H1112   1.111       .  S
C1113      C1114   1.399       .  A
C1113      C1118   1.392       .  A
C1113      H1120   1.085       .  S
C1114      C1115   1.402       .  A
C1115      C1122   1.507       .  S
C1115      C1116   1.391       .  A
C1116      C1117   1.409       .  A
C1116      H1121   1.077       .  S
C1117      C1118   1.420       .  A
C1118      C1119   1.511       .  S
C1119      H1123   1.111       .  S
C1119      H1124   1.105       .  S
C1119      H1125   1.110       .  S
C1122      H1126   1.111       .  S
C1122      H1127   1.105       .  S
C1122      H1128   1.110       .  S
C1129      C1130   1.405       .  A
C1129      C1134   1.417       .  A
C1129      H1136   1.084       .  S
C1130      C1131   1.421       .  A
C1131      C1138   1.508       .  S
C1131      C1132   1.418       .  A
C1132      C1133   1.409       .  A
C1132      H1137   1.078       .  S
C1133      C1134   1.429       .  A
C1134      C1135   1.508       .  S
C1135      H1139   1.111       .  S
C1135      H1140   1.110       .  S
C1135      H1141   1.108       .  S
C1138      H1142   1.107       .  S
C1138      H1143   1.110       .  S
C1138      H1144   1.111       .  S
C1145      C1146   1.405       .  A
C1145      C1150   1.389       .  A
C1145      H1152   1.082       .  S
C1146      C1147   1.418       .  A
C1147      C1154   1.508       .  S
C1147      C1148   1.395       .  A
C1148      C1149   1.400       .  A
C1148      H1153   1.085       .  S
C1149      C1150   1.412       .  A
C1150      C1151   1.510       .  S
C1151      H1155   1.111       .  S
C1151      H1156   1.111       .  S
C1151      H1157   1.110       .  S
C1154      H1158   1.110       .  S
C1154      H1159   1.107       .  S
C1154      H1160   1.111       .  S
C1161      C1162   1.406       .  A
C1161      C1166   1.422       .  A
C1161      H1168   1.082       .  S
C1162      C1163   1.408       .  A
C1163      C1170   1.509       .  S
C1163      C1164   1.410       .  A
C1164      C1165   1.423       .  A
C1164      H1169   1.079       .  S
C1165      C1166   1.432       .  A
C1166      C1167   1.506       .  S
C1167      H1171   1.111       .  S
C1167      H1172   1.107       .  S
C1167      H1173   1.101       .  S
C1170      H1174   1.109       .  S
C1170      H1175   1.111       .  S
C1170      H1176   1.111       .  S
C1177      C1178   1.397       .  A
C1177      C1182   1.393       .  A
C1177      H1184   1.085       .  S
C1178      C1179   1.407       .  A
C1179      C1186   1.509       .  S
C1179      C1180   1.392       .  A
C1180      C1181   1.407       .  A
C1180      H1185   1.080       .  S
C1181      C1182   1.420       .  A
C1182      C1183   1.509       .  S
C1183      H1187   1.111       .  S
C1183      H1188   1.111       .  S
C1183      H1189   1.106       .  S
C1186      H1190   1.111       .  S
C1186      H1191   1.110       .  S
C1186      H1192   1.111       .  S
C1193      C1194   1.391       .  A
C1193      C1198   1.390       .  A
C1193      H1200   1.085       .  S
C1194      C1195   1.407       .  A
C1195      C1202   1.511       .  S
C1195      C1196   1.395       .  A
C1196      C1197   1.411       .  A
C1196      H1201   1.075       .  S
C1197      C1198   1.432       .  A
C1198      C1199   1.518       .  S
C1199      H1203   1.111       .  S
C1199      H1204   1.104       .  S
C1199      H1205   1.102       .  S
C1202      H1206   1.109       .  S
C1202      H1207   1.110       .  S
C1202      H1208   1.111       .  S
C1209      C1210   1.406       .  A
C1209      C1214   1.417       .  A
C1209      H1216   1.080       .  S
C1210      C1211   1.419       .  A
C1211      C1218   1.507       .  S
C1211      C1212   1.405       .  A
C1212      C1213   1.408       .  A
C1212      H1217   1.081       .  S
C1213      C1214   1.422       .  A
C1214      C1215   1.505       .  S
C1215      H1219   1.110       .  S
C1215      H1220   1.110       .  S
C1215      H1221   1.110       .  S
C1218      H1222   1.109       .  S
C1218      H1223   1.104       .  S
C1218      H1224   1.110       .  S
O1225     Ni1233   1.923       .  S
O1225      C1235   1.280       .  A
O1226      C1236   1.286       .  A
O1227      C1237   1.279       .  A
O1228     Ni1233   1.896       .  S
O1228      C1238   1.278       .  A
O1229      C1238   1.274       .  A
O1230     Ni1234   1.889       .  S
O1230      C1237   1.275       .  A
O1231     Ni1234   1.941       .  S
O1231      C1236   1.286       .  A
O1232      C1235   1.288       .  A
C1235      C1570   1.499       .  S
C1236      C1621   1.515       .  S
C1237      C1602   1.456       .  S
C1238      C1586   1.448       .  S
C1239      C1240   1.538       .  S
C1239      C1245   1.539       .  S
C1239      C1243   1.522       .  S
C1239      C1605   1.520       .  S
C1240      H1247   1.081       .  S
C1241      C1242   1.561       .  S
C1242      C1246   1.554       .  S
C1242      C1244   1.560       .  S
C1242      H1248   1.110       .  S
C1243      H1249   1.070       .  S
C1246      C1618   1.506       .  S
C1251      C1252   1.509       .  S
C1251      C1257   1.547       .  S
C1251      C1255   1.524       .  S
C1251      C1589   1.515       .  S
C1252      H1259   1.081       .  S
C1253      C1254   1.576   1_554  S
C1254      C1258   1.574       .  S
C1254      C1256   1.562   1_556  S
C1254      H1260   1.099       .  S
C1255      H1261   1.087       .  S
C1258      C1573   1.552       .  S
O1263      C1273   1.273       .  A
O1264     Ni1271   1.881   1_565  S
O1264      C1274   1.273       .  A
O1265     Ni1271   1.961   1_565  S
O1265      C1275   1.290       .  A
O1266      C1276   1.291       .  A
O1267      C1276   1.283       .  A
O1268     Ni1272   1.935   1_565  S
O1268      C1275   1.284       .  A
O1269     Ni1272   1.907   1_565  S
O1269      C1274   1.280       .  A
O1270      C1273   1.279       .  A
Ni1271    Ni1272   2.387       .  S
C1273      C1557   1.453       .  S
C1274      C1522   1.452       .  S
C1275      C1509   1.514       .  S
C1276      C1538   1.514       .  S
C1277      C1278   1.508       .  S
C1277      C1283   1.558       .  S
C1277      C1281   1.517       .  S
C1277      C1554   1.513       .  S
C1278      H1285   1.084       .  S
C1279      C1280   1.568   1_554  S
C1280      C1284   1.558       .  S
C1280      C1282   1.577   1_556  S
C1280      H1286   1.109       .  S
C1281      H1287   1.084       .  S
C1284      C1541   1.540       .  S
C1289      C1290   1.509       .  S
C1289      C1295   1.547   1_556  S
C1289      C1293   1.527       .  S
C1289      C1525   1.515       .  S
C1290      H1297   1.088       .  S
C1291      C1292   1.576       .  S
C1292      C1296   1.573       .  S
C1292      C1294   1.562       .  S
C1292      H1298   1.106       .  S
C1293      H1299   1.079       .  S
C1296      C1506   1.542       .  S
O1301     Ni2941   1.894   1_455  S
O1301      C1311   1.276       .  A
O1302     Ni1309   1.897       .  S
O1302      C1312   1.276       .  A
O1303     Ni1309   1.944       .  S
O1303      C1313   1.287       .  A
O1304     Ni2941   1.944   1_455  S
O1304      C1314   1.287       .  A
O1305     Ni2942   1.931   1_455  S
O1305      C1314   1.284       .  A
O1306     Ni1310   1.929       .  S
O1306      C1313   1.284       .  A
O1307     Ni1310   1.883       .  S
O1307      C1312   1.276       .  A
O1308     Ni2942   1.881   1_455  S
O1308      C1311   1.275       .  A
Ni1309     O2933   1.893       .  S
Ni1309     O2936   1.943       .  S
Ni1309    Ni1310   2.389       .  S
Ni1310     O2937   1.930       .  S
Ni1310     O2940   1.881       .  S
C1311      C1490   1.441       .  S
C1312      C1458   1.444       .  S
C1313      C1442   1.514       .  S
C1314      C1474   1.505       .  S
C1315      C1316   1.536       .  S
C1315      C1321   1.535       .  S
C1315      C1319   1.517       .  S
C1315      C1493   1.514       .  S
C1316      H1323   1.077       .  S
C1317      C1318   1.559   1_554  S
C1318      C1322   1.557       .  S
C1318      C1320   1.572   1_556  S
C1318      H1324   1.110       .  S
C1319      H1325   1.084       .  S
C1322      C1477   1.523       .  S
C1327      C1328   1.537       .  S
C1327      C1333   1.529   1_556  S
C1327      C1331   1.524       .  S
C1327      C1461   1.514       .  S
C1328      H1335   1.081       .  S
C1329      C1330   1.569       .  S
C1330      C1334   1.562       .  S
C1330      C1332   1.556       .  S
C1330      H1336   1.110       .  S
C1331      H1337   1.073       .  S
C1334      C1445   1.503       .  S
O1339     Ni1347   1.932       .  S
O1339      C1349   1.283       .  A
O1340     Ni2979   1.933   1_455  S
O1340      C1350   1.282       .  A
O1341     Ni2979   1.900   1_455  S
O1341      C1351   1.278       .  A
O1342     Ni1347   1.896       .  S
O1342      C1352   1.279       .  A
O1343     Ni1348   1.902       .  S
O1343      C1352   1.274       .  A
O1344     Ni2980   1.891       .  S
O1344      C1351   1.276       .  A
O1345     Ni2980   1.956       .  S
O1345      C1350   1.289       .  A
O1346     Ni1348   1.959       .  S
O1346      C1349   1.291       .  A
Ni1347     O2972   1.934       .  S
Ni1347     O2973   1.901       .  S
Ni1347    Ni1348   2.386       .  S
Ni1348     O2976   1.890       .  S
Ni1348     O2977   1.957       .  S
C1349      C1378   1.519       .  S
C1350      C1426   1.505       .  S
C1351      C1410   1.450       .  S
C1352      C1394   1.462       .  S
C1353      C1354   1.521       .  S
C1353      C1359   1.544       .  S
C1353      C1357   1.518       .  S
C1353      C1413   1.526       .  S
C1354      H1361   1.076       .  S
C1355      C1356   1.577       .  S
C1356      C1360   1.568       .  S
C1356      C1358   1.564       .  S
C1356      H1362   1.101       .  S
C1357      H1363   1.074       .  S
C1360      C1429   1.552       .  S
C1365      C1366   1.501       .  S
C1365      C1371   1.551       .  S
C1365      C1369   1.527       .  S
C1365      C1397   1.519       .  S
C1366      H1373   1.078       .  S
C1367      C1368   1.570   1_554  S
C1368      C1372   1.575       .  S
C1368      C1370   1.574   1_556  S
C1368      H1374   1.101       .  S
C1369      H1375   1.077       .  S
C1372      C1381   1.552       .  S
C1377      C1378   1.407       .  A
C1377      C1382   1.421       .  A
C1377      H1384   1.085       .  S
C1378      C1379   1.414       .  A
C1379      C1386   1.507       .  S
C1379      C1380   1.417       .  A
C1380      C1381   1.422       .  A
C1380      H1385   1.083       .  S
C1381      C1382   1.437       .  A
C1382      C1383   1.506       .  S
C1383      H1387   1.111       .  S
C1383      H1388   1.090       .  S
C1383      H1389   1.111       .  S
C1386      H1390   1.110       .  S
C1386      H1391   1.111       .  S
C1386      H1392   1.111       .  S
C1393      C1394   1.399       .  A
C1393      C1398   1.393       .  A
C1393      H1400   1.086       .  S
C1394      C1395   1.414       .  A
C1395      C1402   1.509       .  S
C1395      C1396   1.397       .  A
C1396      C1397   1.408       .  A
C1396      H1401   1.083       .  S
C1397      C1398   1.420       .  A
C1398      C1399   1.509       .  S
C1399      H1403   1.111       .  S
C1399      H1404   1.111       .  S
C1399      H1405   1.106       .  S
C1402      H1406   1.103       .  S
C1402      H1407   1.111       .  S
C1402      H1408   1.110       .  S
C1409      C1410   1.396       .  A
C1409      C1414   1.399       .  A
C1409      H1416   1.085       .  S
C1410      C1411   1.401       .  A
C1411      C1418   1.510       .  S
C1411      C1412   1.389       .  A
C1412      C1413   1.418       .  A
C1412      H1417   1.084       .  S
C1413      C1414   1.422       .  A
C1414      C1415   1.501       .  S
C1415      H1419   1.111       .  S
C1415      H1420   1.110       .  S
C1415      H1421   1.107       .  S
C1418      H1422   1.109       .  S
C1418      H1423   1.111       .  S
C1418      H1424   1.111       .  S
C1425      C1426   1.406       .  A
C1425      C1430   1.428       .  A
C1425      H1432   1.084       .  S
C1426      C1427   1.406       .  A
C1427      C1434   1.505       .  S
C1427      C1428   1.408       .  A
C1428      C1429   1.422       .  A
C1428      H1433   1.079       .  S
C1429      C1430   1.435       .  A
C1430      C1431   1.505       .  S
C1431      H1435   1.111       .  S
C1431      H1436   1.100       .  S
C1431      H1437   1.109       .  S
C1434      H1438   1.105       .  S
C1434      H1439   1.108       .  S
C1434      H1440   1.111       .  S
C1441      C1442   1.411       .  A
C1441      C1446   1.417       .  A
C1441      H1448   1.084       .  S
C1442      C1443   1.422       .  A
C1443      C1450   1.501       .  S
C1443      C1444   1.406       .  A
C1444      C1445   1.401       .  A
C1444      H1449   1.081       .  S
C1445      C1446   1.419       .  A
C1446      C1447   1.505       .  S
C1447      H1451   1.111       .  S
C1447      H1452   1.107       .  S
C1447      H1453   1.110       .  S
C1450      H1454   1.109       .  S
C1450      H1455   1.103       .  S
C1450      H1456   1.111       .  S
C1457      C1458   1.390       .  A
C1457      C1462   1.387       .  A
C1457      H1464   1.086       .  S
C1458      C1459   1.402       .  A
C1459      C1466   1.509       .  S
C1459      C1460   1.395       .  A
C1460      C1461   1.412       .  A
C1460      H1465   1.075       .  S
C1461      C1462   1.434       .  A
C1462      C1463   1.524       .  S
C1463      H1467   1.111       .  S
C1463      H1468   1.105       .  S
C1466      H1470   1.109       .  S
C1466      H1471   1.111       .  S
C1466      H1472   1.111       .  S
C1473      C1474   1.404       .  A
C1473      C1478   1.411       .  A
C1473      H1480   1.084       .  S
C1474      C1475   1.422       .  A
C1475      C1482   1.508       .  S
C1475      C1476   1.416       .  A
C1476      C1477   1.406       .  A
C1476      H1481   1.077       .  S
C1477      C1478   1.425       .  A
C1478      C1479   1.508       .  S
C1479      H1483   1.111       .  S
C1479      H1485   1.109       .  S
C1482      H1486   1.107       .  S
C1482      H1487   1.111       .  S
C1482      H1488   1.109       .  S
C1489      C1490   1.390       .  A
C1489      C1494   1.387       .  A
C1489      H1496   1.086       .  S
C1490      C1491   1.404       .  A
C1491      C1498   1.510       .  S
C1491      C1492   1.394       .  A
C1492      C1493   1.411       .  A
C1492      H1497   1.076       .  S
C1493      C1494   1.433       .  A
C1494      C1495   1.521       .  S
C1495      H1499   1.111       .  S
C1495      H1501   1.103       .  S
C1498      H1502   1.108       .  S
C1498      H1503   1.111       .  S
C1498      H1504   1.109       .  S
C1505      C1506   1.416       .  A
C1505      C1510   1.415       .  A
C1505      H1512   1.084       .  S
C1506      C1507   1.431       .  A
C1507      C1514   1.500       .  S
C1507      C1508   1.424       .  A
C1508      C1509   1.407       .  A
C1508      H1513   1.084       .  S
C1509      C1510   1.416       .  A
C1510      C1511   1.506       .  S
C1511      H1515   1.111       .  S
C1511      H1516   1.111   1_565  S
C1511      H1517   1.109       .  S
C1514      H1518   1.111       .  S
C1514      H1519   1.096       .  S
C1514      H1520   1.111       .  S
C1521      C1522   1.399       .  A
C1521      C1526   1.392       .  A
C1521      H1528   1.085       .  S
C1522      C1523   1.404       .  A
C1523      C1530   1.507       .  S
C1523      C1524   1.392       .  A
C1524      C1525   1.411       .  A
C1524      H1529   1.080       .  S
C1525      C1526   1.419       .  A
C1526      C1527   1.511       .  S
C1527      H1531   1.111       .  S
C1527      H1532   1.106       .  S
C1527      H1533   1.110       .  S
C1530      H1534   1.111       .  S
C1530      H1535   1.103       .  S
C1530      H1536   1.111       .  S
C1537      C1538   1.404       .  A
C1537      C1542   1.417       .  A
C1537      H1544   1.084       .  S
C1538      C1539   1.421       .  A
C1539      C1546   1.507       .  S
C1539      C1540   1.420       .  A
C1540      C1541   1.410       .  A
C1540      H1545   1.078       .  S
C1541      C1542   1.430       .  A
C1542      C1543   1.508       .  S
C1543      H1547   1.111       .  S
C1543      H1548   1.110       .  S
C1543      H1549   1.108       .  S
C1546      H1550   1.108       .  S
C1546      H1551   1.110       .  S
C1546      H1552   1.111       .  S
C1553      C1554   1.406       .  A
C1553      C1558   1.389       .  A
C1553      H1560   1.082       .  S
C1554      C1555   1.418       .  A
C1555      C1562   1.508       .  S
C1555      C1556   1.393       .  A
C1556      C1557   1.398       .  A
C1556      H1561   1.085       .  S
C1557      C1558   1.410       .  A
C1558      C1559   1.510       .  S
C1559      H1563   1.111       .  S
C1559      H1564   1.111       .  S
C1559      H1565   1.110       .  S
C1562      H1566   1.110       .  S
C1562      H1567   1.106       .  S
C1562      H1568   1.111       .  S
C1569      C1570   1.404       .  A
C1569      C1574   1.423       .  A
C1569      H1576   1.084       .  S
C1570      C1571   1.405       .  A
C1571      C1578   1.508       .  S
C1571      C1572   1.409       .  A
C1572      C1573   1.425       .  A
C1572      H1577   1.078       .  S
C1573      C1574   1.432       .  A
C1574      C1575   1.501       .  S
C1575      H1579   1.111       .  S
C1575      H1580   1.100       .  S
C1575      H1581   1.108       .  S
C1578      H1582   1.110       .  S
C1578      H1583   1.109       .  S
C1578      H1584   1.111       .  S
C1585      C1586   1.396       .  A
C1585      C1590   1.393       .  A
C1585      H1592   1.085       .  S
C1586      C1587   1.407       .  A
C1587      C1594   1.510       .  S
C1587      C1588   1.391       .  A
C1588      C1589   1.407       .  A
C1588      H1593   1.081       .  S
C1589      C1590   1.420       .  A
C1590      C1591   1.509       .  S
C1591      H1595   1.111       .  S
C1591      H1596   1.111       .  S
C1591      H1597   1.106       .  S
C1594      H1598   1.111       .  S
C1594      H1599   1.110       .  S
C1594      H1600   1.111       .  S
C1601      C1602   1.391       .  A
C1601      C1606   1.391       .  A
C1601      H1608   1.085       .  S
C1602      C1603   1.409       .  A
C1603      C1610   1.510       .  S
C1603      C1604   1.395       .  A
C1604      C1605   1.408       .  A
C1604      H1609   1.075       .  S
C1605      C1606   1.433       .  A
C1606      C1607   1.516       .  S
C1607      H1611   1.111       .  S
C1607      H1612   1.104       .  S
C1607      H1613   1.101       .  S
C1610      H1614   1.109       .  S
C1610      H1615   1.110       .  S
C1610      H1616   1.111       .  S
C1617      C1618   1.405       .  A
C1617      C1622   1.418       .  A
C1617      H1624   1.080       .  S
C1618      C1619   1.419       .  A
C1619      C1626   1.507       .  S
C1619      C1620   1.408       .  A
C1620      C1621   1.408       .  A
C1620      H1625   1.080       .  S
C1621      C1622   1.424       .  A
C1622      C1623   1.506       .  S
C1623      H1627   1.110       .  S
C1623      H1628   1.110       .  S
C1623      H1629   1.110       .  S
C1626      H1630   1.110       .  S
C1626      H1631   1.105       .  S
C1626      H1632   1.110       .  S
O1633     Ni1641   1.922       .  S
O1633      C1643   1.279       .  A
O1634     Ni2457   1.932   1_545  S
O1634      C1644   1.286       .  A
O1635     Ni2457   1.899   1_545  S
O1635      C1645   1.279       .  A
O1636     Ni1641   1.898       .  S
O1636      C1646   1.279       .  A
O1637     Ni2458   1.889       .  S
O1637      C1646   1.274       .  A
O1638     Ni1642   1.889       .  S
O1638      C1645   1.275       .  A
O1639     Ni1642   1.942       .  S
O1639      C1644   1.286       .  A
O1640     Ni2458   1.951       .  S
O1640      C1643   1.288       .  A
Ni1641     O2450   1.920       .  S
Ni1641     O2451   1.899       .  S
Ni1641    Ni2458   2.388       .  S
Ni1642     O2453   1.893   1_545  S
Ni1642     O2456   1.942   1_545  S
Ni1642    Ni2457   2.387   1_545  S
C1643      C1978   1.498       .  S
C1644      C2029   1.514       .  S
C1645      C2010   1.456       .  S
C1646      C1994   1.449       .  S
C1647      C1648   1.538       .  S
C1647      C1653   1.539       .  S
C1647      C1651   1.522       .  S
C1647      C2013   1.521       .  S
C1648      H1655   1.082       .  S
C1648      C2057   1.361       .  D
C1649      C1650   1.559   1_556  S
C1649      C2056   1.360       .  D
C1649      C2133   1.479   1_556  S
C1650      C1654   1.554       .  S
C1650      C1652   1.559   1_554  S
C1650      H1656   1.111       .  S
C1651      H1657   1.070       .  S
C1651      C2060   1.353       .  D
C1652      C2059   1.351       .  D
C1652      C2098   1.487   1_556  S
C1653      H2066   1.086       .  S
C1653      C2062   1.356       .  D
C1654      C2061   1.357   1_554  D
C1654      C2026   1.507       .  S
H1658      C2061   1.086       .  S
C1659      C1660   1.509       .  S
C1659      C1665   1.547       .  S
C1659      C1663   1.524       .  S
C1659      C1997   1.515       .  S
C1660      H1667   1.081       .  S
C1660      C2069   1.350       .  D
C1661      C1662   1.576       .  S
C1661      C2068   1.348       .  D
C1661      C2171   1.490       .  S
C1662      C1666   1.574       .  S
C1662      C1664   1.560       .  S
C1662      H1668   1.100       .  S
C1663      H1669   1.086       .  S
C1663      C2072   1.354       .  D
C1664      C2071   1.357       .  D
C1664      C2110   1.490       .  S
C1665      H2078   1.079       .  S
C1665      C2074   1.376   1_554  D
C1666      C2073   1.373       .  D
C1666      C1981   1.550       .  S
H1670      C2073   1.076       .  S
O1671     Ni2495   1.886       .  S
O1671      C1681   1.273       .  A
O1672     Ni1679   1.881       .  S
O1672      C1682   1.273       .  A
O1673     Ni1679   1.960       .  S
O1673      C1683   1.290       .  A
O1674     Ni2495   1.959       .  S
O1674      C1684   1.291       .  A
O1675     Ni2496   1.932       .  S
O1675      C1684   1.283       .  A
O1676     Ni1680   1.936       .  S
O1676      C1683   1.284       .  A
O1677     Ni1680   1.908       .  S
O1677      C1682   1.280       .  A
O1678     Ni2496   1.900       .  S
O1678      C1681   1.280       .  A
Ni1679     O2487   1.885       .  S
Ni1679     O2490   1.957       .  S
Ni1679    Ni1680   2.386       .  S
Ni1680     O2491   1.934       .  S
Ni1680     O2494   1.903       .  S
C1681      C1965   1.455       .  S
C1682      C1930   1.452       .  S
C1683      C1917   1.514       .  S
C1684      C1946   1.513       .  S
C1685      C1686   1.509       .  S
C1685      C1691   1.558       .  S
C1685      C1689   1.516       .  S
C1685      C1962   1.514       .  S
C1686      H1693   1.084       .  S
C1686      C2095   1.352       .  D
C1687      C1688   1.569       .  S
C1687      C2094   1.352       .  D
C1687      C2145   1.483       .  S
C1688      C1692   1.558       .  S
C1688      C1690   1.577       .  S
C1688      H1694   1.109       .  S
C1689      H1695   1.084       .  S
C1689      C2098   1.356       .  D
C1690      C2097   1.356       .  D
C1690      C2060   1.488       .  S
C1691      H2104   1.083       .  S
C1691      C2100   1.367   1_554  D
C1692      C2099   1.366       .  D
C1692      C1949   1.538       .  S
H1696      C2099   1.083       .  S
C1697      C1698   1.508       .  S
C1697      C1703   1.548       .  S
C1697      C1701   1.526       .  S
C1697      C1933   1.515       .  S
C1698      H1705   1.088       .  S
C1698      C2107   1.350       .  D
C1699      C1700   1.576   1_556  S
C1699      C2106   1.348       .  D
C1699      C2183   1.479   1_556  S
C1700      C1704   1.573       .  S
C1700      C1702   1.564   1_554  S
C1700      H1706   1.106       .  S
C1701      H1707   1.079       .  S
C1701      C2110   1.354       .  D
C1702      C2109   1.355       .  D
C1702      C2072   1.490   1_556  S
C1703      H2116   1.085       .  S
C1703      C2112   1.374       .  D
C1704      C2111   1.372       .  D
C1704      C1914   1.542       .  S
H1708      C2111   1.086       .  S
O1709      C1719   1.277       .  A
O1710     Ni1717   1.897       .  S
O1710      C1720   1.276       .  A
O1711     Ni1717   1.945       .  S
O1711      C1721   1.287       .  A
O1712      C1722   1.288       .  A
O1713      C1722   1.284       .  A
O1714     Ni1718   1.931       .  S
O1714      C1721   1.284       .  A
O1715     Ni1718   1.883       .  S
O1715      C1720   1.276       .  A
O1716      C1719   1.275       .  A
Ni1717    Ni1718   2.389       .  S
C1719      C1898   1.442       .  S
C1720      C1866   1.444       .  S
C1721      C1850   1.514       .  S
C1722      C1882   1.507       .  S
C1723      C1724   1.536       .  S
C1723      C1729   1.534       .  S
C1723      C1727   1.517       .  S
C1723      C1901   1.514       .  S
C1724      H1731   1.077       .  S
C1724      C2133   1.362       .  D
C1725      C1726   1.561       .  S
C1725      C2132   1.362       .  D
C1725      C2057   1.480       .  S
C1726      C1730   1.559       .  S
C1726      C1728   1.573       .  S
C1726      H1732   1.110       .  S
C1727      H1733   1.084       .  S
C1727      C2136   1.350       .  D
C1728      C2135   1.352       .  D
C1728      C2174   1.493       .  S
C1729      H2142   1.082       .  S
C1729      C2138   1.359   1_554  D
C1730      C2137   1.361       .  D
C1730      C1885   1.526       .  S
H1734      C2137   1.082       .  S
C1735      C1736   1.537       .  S
C1735      C1741   1.531       .  S
C1735      C1739   1.524       .  S
C1735      C1869   1.515       .  S
C1736      H1743   1.081       .  S
C1736      C2145   1.364       .  D
C1737      C1738   1.568   1_556  S
C1737      C2144   1.367       .  D
C1737      C2095   1.482   1_556  S
C1738      C1742   1.561       .  S
C1738      C1740   1.555   1_554  S
C1738      H1744   1.110       .  S
C1739      H1745   1.072       .  S
C1739      C2148   1.348       .  D
C1740      C2147   1.348       .  D
C1740      C2186   1.491   1_556  S
C1741      H2154   1.086       .  S
C1741      C2150   1.352       .  D
C1742      C2149   1.349   1_554  D
C1742      C1853   1.503       .  S
H1746      C2149   1.087   1_554  S
O1747     Ni1755   1.933       .  S
O1747      C1757   1.284       .  A
O1748      C1758   1.283       .  A
O1749      C1759   1.277       .  A
O1750     Ni1755   1.894       .  S
O1750      C1760   1.278       .  A
O1751     Ni1756   1.901   1_655  S
O1751      C1760   1.274       .  A
O1752      C1759   1.275       .  A
O1753      C1758   1.289       .  A
O1754     Ni1756   1.957   1_655  S
O1754      C1757   1.290       .  A
Ni1755    Ni1756   2.387   1_655  S
C1757      C1786   1.518       .  S
C1758      C1834   1.506       .  S
C1759      C1818   1.447       .  S
C1760      C1802   1.460       .  S
C1761      C1762   1.519       .  S
C1761      C1767   1.543       .  S
C1761      C1765   1.518       .  S
C1761      C1821   1.524       .  S
C1762      H1769   1.076       .  S
C1762      C2171   1.361       .  D
C1763      C1764   1.576   1_556  S
C1763      C2170   1.359       .  D
C1763      C2069   1.486   1_556  S
C1764      C1768   1.567       .  S
C1764      C1766   1.565   1_554  S
C1764      H1770   1.101       .  S
C1765      H1771   1.075       .  S
C1765      C2174   1.345       .  D
C1766      C2173   1.346       .  D
C1766      C2136   1.491   1_556  S
C1767      H2180   1.084       .  S
C1767      C2176   1.371       .  D
C1768      C2175   1.373   1_554  D
C1768      C1837   1.552       .  S
H1772      C2175   1.084       .  S
C1773      C1774   1.502       .  S
C1773      C1779   1.552       .  S
C1773      C1777   1.526       .  S
C1773      C1805   1.519       .  S
C1774      H1781   1.078       .  S
C1774      C2183   1.344       .  D
C1775      C1776   1.569       .  S
C1775      C2182   1.345       .  D
C1775      C2107   1.480       .  S
C1776      C1780   1.574       .  S
C1776      C1778   1.573       .  S
C1776      H1782   1.100       .  S
C1777      H1783   1.078       .  S
C1777      C2186   1.355       .  D
C1778      C2185   1.356       .  D
C1778      C2148   1.493       .  S
C1779      H2192   1.084       .  S
C1779      C2188   1.378   1_554  D
C1780      C2187   1.377       .  D
C1780      C1789   1.553       .  S
H1784      C2187   1.084       .  S
C1785      C1786   1.406       .  A
C1785      C1790   1.420       .  A
C1785      H1792   1.085       .  S
C1786      C1787   1.414       .  A
C1787      C1794   1.507       .  S
C1787      C1788   1.417       .  A
C1788      C1789   1.422       .  A
C1788      H1793   1.083       .  S
C1789      C1790   1.437       .  A
C1790      C1791   1.506       .  S
C1791      H1795   1.111       .  S
C1791      H1796   1.089       .  S
C1791      H1797   1.111       .  S
C1794      H1798   1.110       .  S
C1794      H1799   1.111       .  S
C1794      H1800   1.111       .  S
C1801      C1802   1.399       .  A
C1801      C1806   1.393       .  A
C1801      H1808   1.086       .  S
C1802      C1803   1.414       .  A
C1803      C1810   1.509       .  S
C1803      C1804   1.396       .  A
C1804      C1805   1.408       .  A
C1804      H1809   1.083       .  S
C1805      C1806   1.420       .  A
C1806      C1807   1.509       .  S
C1807      H1811   1.111       .  S
C1807      H1812   1.111       .  S
C1807      H1813   1.106       .  S
C1810      H1814   1.102       .  S
C1810      H1815   1.110       .  S
C1810      H1816   1.110       .  S
C1817      C1818   1.396       .  A
C1817      C1822   1.398       .  A
C1817      H1824   1.085       .  S
C1818      C1819   1.400       .  A
C1819      C1826   1.510       .  S
C1819      C1820   1.387       .  A
C1820      C1821   1.417       .  A
C1820      H1825   1.085       .  S
C1821      C1822   1.422       .  A
C1822      C1823   1.501       .  S
C1823      H1827   1.111       .  S
C1823      H1828   1.109       .  S
C1823      H1829   1.107       .  S
C1826      H1830   1.109       .  S
C1826      H1831   1.111       .  S
C1826      H1832   1.111       .  S
C1833      C1834   1.406       .  A
C1833      C1838   1.428       .  A
C1833      H1840   1.084       .  S
C1834      C1835   1.406       .  A
C1835      C1842   1.505       .  S
C1835      C1836   1.408       .  A
C1836      C1837   1.421       .  A
C1836      H1841   1.079       .  S
C1837      C1838   1.436       .  A
C1838      C1839   1.505       .  S
C1839      H1843   1.111       .  S
C1839      H1844   1.099       .  S
C1839      H1845   1.109       .  S
C1842      H1846   1.105       .  S
C1842      H1847   1.107       .  S
C1842      H1848   1.111       .  S
C1849      C1850   1.410       .  A
C1849      C1854   1.416       .  A
C1849      H1856   1.084       .  S
C1850      C1851   1.422       .  A
C1851      C1858   1.499       .  S
C1851      C1852   1.406       .  A
C1852      C1853   1.401       .  A
C1852      H1857   1.082       .  S
C1853      C1854   1.419       .  A
C1854      C1855   1.504       .  S
C1855      H1859   1.111       .  S
C1855      H1860   1.106       .  S
C1855      H1861   1.110       .  S
C1858      H1862   1.109       .  S
C1858      H1863   1.102       .  S
C1858      H1864   1.111       .  S
C1865      C1866   1.390       .  A
C1865      C1870   1.386       .  A
C1865      H1872   1.086       .  S
C1866      C1867   1.402       .  A
C1867      C1874   1.509       .  S
C1867      C1868   1.396       .  A
C1868      C1869   1.413       .  A
C1868      H1873   1.075       .  S
C1869      C1870   1.434       .  A
C1870      C1871   1.524       .  S
C1871      H1875   1.111       .  S
C1871      H1876   1.105       .  S
C1871      H2285   1.104       .  S
C1874      H1878   1.110       .  S
C1874      H1879   1.111       .  S
C1874      H1880   1.111       .  S
H1877      C2279   1.104       .  S
C1881      C1882   1.404       .  A
C1881      C1886   1.412       .  A
C1881      H1888   1.084       .  S
C1882      C1883   1.423       .  A
C1883      C1890   1.508       .  S
C1883      C1884   1.417       .  A
C1884      C1885   1.407       .  A
C1884      H1889   1.077       .  S
C1885      C1886   1.426       .  A
C1886      C1887   1.508       .  S
C1887      H1891   1.111       .  S
C1887      H2300   1.110       .  S
C1887      H1893   1.109       .  S
C1890      H1894   1.107       .  S
C1890      H1895   1.111       .  S
C1890      H1896   1.109       .  S
H1892      C2295   1.110       .  S
C1897      C1898   1.390       .  A
C1897      C1902   1.386       .  A
C1897      H1904   1.085       .  S
C1898      C1899   1.404       .  A
C1899      C1906   1.510       .  S
C1899      C1900   1.394       .  A
C1900      C1901   1.411       .  A
C1900      H1905   1.076       .  S
C1901      C1902   1.432       .  A
C1902      C1903   1.520       .  S
C1903      H1907   1.110       .  S
C1903      H2316   1.105       .  S
C1903      H1909   1.103       .  S
C1906      H1910   1.108       .  S
C1906      H1911   1.111       .  S
C1906      H1912   1.109       .  S
H1908      C2311   1.105       .  S
C1913      C1914   1.416       .  A
C1913      C1918   1.415       .  A
C1913      H1920   1.084       .  S
C1914      C1915   1.431       .  A
C1915      C1922   1.500       .  S
C1915      C1916   1.423       .  A
C1916      C1917   1.406       .  A
C1916      H1921   1.084       .  S
C1917      C1918   1.415       .  A
C1918      C1919   1.506       .  S
C1919      H1923   1.111       .  S
C1919      H1924   1.111       .  S
C1919      H1925   1.109       .  S
C1922      H1926   1.111       .  S
C1922      H1927   1.096       .  S
C1922      H1928   1.111       .  S
C1929      C1930   1.399       .  A
C1929      C1934   1.392       .  A
C1929      H1936   1.085       .  S
C1930      C1931   1.404       .  A
C1931      C1938   1.507       .  S
C1931      C1932   1.392       .  A
C1932      C1933   1.411       .  A
C1932      H1937   1.080       .  S
C1933      C1934   1.419       .  A
C1934      C1935   1.510       .  S
C1935      H1939   1.111       .  S
C1935      H1940   1.106       .  S
C1935      H1941   1.110       .  S
C1938      H1942   1.111       .  S
C1938      H1943   1.102       .  S
C1938      H1944   1.111       .  S
C1945      C1946   1.404       .  A
C1945      C1950   1.417       .  A
C1945      H1952   1.084       .  S
C1946      C1947   1.421       .  A
C1947      C1954   1.508       .  S
C1947      C1948   1.419       .  A
C1948      C1949   1.410       .  A
C1948      H1953   1.078       .  S
C1949      C1950   1.430       .  A
C1950      C1951   1.508       .  S
C1951      H1955   1.111       .  S
C1951      H1956   1.110       .  S
C1951      H1957   1.108       .  S
C1954      H1958   1.108       .  S
C1954      H1959   1.110       .  S
C1954      H1960   1.111       .  S
C1961      C1962   1.407       .  A
C1961      C1966   1.390       .  A
C1961      H1968   1.082       .  S
C1962      C1963   1.418       .  A
C1963      C1970   1.508       .  S
C1963      C1964   1.393       .  A
C1964      C1965   1.398       .  A
C1964      H1969   1.085       .  S
C1965      C1966   1.411       .  A
C1966      C1967   1.510       .  S
C1967      H1971   1.111       .  S
C1967      H1972   1.111       .  S
C1967      H1973   1.110       .  S
C1970      H1974   1.110       .  S
C1970      H1975   1.106       .  S
C1970      H1976   1.111       .  S
C1977      C1978   1.405       .  A
C1977      C1982   1.423       .  A
C1977      H1984   1.084       .  S
C1978      C1979   1.405       .  A
C1979      C1986   1.508       .  S
C1979      C1980   1.409       .  A
C1980      C1981   1.424       .  A
C1980      H1985   1.079       .  S
C1981      C1982   1.431       .  A
C1982      C1983   1.501       .  S
C1983      H1987   1.111       .  S
C1983      H1988   1.099       .  S
C1983      H1989   1.108       .  S
C1986      H1990   1.110       .  S
C1986      H1991   1.108       .  S
C1986      H1992   1.111       .  S
C1993      C1994   1.396       .  A
C1993      C1998   1.392       .  A
C1993      H2000   1.085       .  S
C1994      C1995   1.408       .  A
C1995      C2002   1.509       .  S
C1995      C1996   1.392       .  A
C1996      C1997   1.407       .  A
C1996      H2001   1.082       .  S
C1997      C1998   1.420       .  A
C1998      C1999   1.509       .  S
C1999      H2003   1.111       .  S
C1999      H2004   1.111       .  S
C1999      H2005   1.106       .  S
C2002      H2006   1.111       .  S
C2002      H2007   1.110       .  S
C2002      H2008   1.111       .  S
C2009      C2010   1.391       .  A
C2009      C2014   1.391       .  A
C2009      H2016   1.085       .  S
C2010      C2011   1.408       .  A
C2011      C2018   1.510       .  S
C2011      C2012   1.395       .  A
C2012      C2013   1.408       .  A
C2012      H2017   1.075       .  S
C2013      C2014   1.433       .  A
C2014      C2015   1.517       .  S
C2015      H2019   1.111       .  S
C2015      H2020   1.104       .  S
C2015      H2021   1.101       .  S
C2018      H2022   1.109       .  S
C2018      H2023   1.110       .  S
C2018      H2024   1.111       .  S
C2025      C2026   1.405       .  A
C2025      C2030   1.418       .  A
C2025      H2032   1.080       .  S
C2026      C2027   1.419       .  A
C2027      C2034   1.507       .  S
C2027      C2028   1.407       .  A
C2028      C2029   1.407       .  A
C2028      H2033   1.080       .  S
C2029      C2030   1.424       .  A
C2030      C2031   1.505       .  S
C2031      H2035   1.110       .  S
C2031      H2036   1.110       .  S
C2031      H2037   1.110       .  S
C2034      H2038   1.110       .  S
C2034      H2039   1.104       .  S
C2034      H2040   1.110       .  S
O2041     Ni2049   1.932       .  S
O2041      C2051   1.283       .  A
O2042     Ni2865   1.923   1_545  S
O2042      C2052   1.283       .  A
O2043     Ni2865   1.897   1_545  S
O2043      C2053   1.279       .  A
O2044     Ni2049   1.896       .  S
O2044      C2054   1.278       .  A
O2045     Ni2866   1.893       .  S
O2045      C2054   1.275       .  A
O2046     Ni2050   1.886       .  S
O2046      C2053   1.274       .  A
O2047     Ni2050   1.947       .  S
O2047      C2052   1.287       .  A
O2048     Ni2866   1.942       .  S
O2048      C2051   1.286       .  A
Ni2049     O2858   1.932       .  S
Ni2049     O2859   1.899       .  S
Ni2049    Ni2866   2.387       .  S
Ni2050     O2861   1.890   1_545  S
Ni2050     O2864   1.950   1_545  S
Ni2050    Ni2865   2.388   1_545  S
C2051      C2386   1.504       .  S
C2052      C2437   1.512       .  S
C2053      C2418   1.453       .  S
C2054      C2402   1.449       .  S
C2055      C2056   1.535       .  S
C2055      C2061   1.540       .  S
C2055      C2059   1.521       .  S
C2055      C2421   1.520       .  S
C2056      H2063   1.081       .  S
C2057      C2058   1.558       .  S
C2058      C2062   1.553       .  S
C2058      C2060   1.559       .  S
C2058      H2064   1.111       .  S
C2059      H2065   1.071       .  S
C2062      C2434   1.505       .  S
C2067      C2068   1.503       .  S
C2067      C2073   1.548       .  S
C2067      C2071   1.535       .  S
C2067      C2405   1.518       .  S
C2068      H2075   1.082       .  S
C2069      C2070   1.566   1_554  S
C2070      C2074   1.570       .  S
C2070      C2072   1.571   1_556  S
C2070      H2076   1.098       .  S
C2071      H2077   1.087       .  S
C2074      C2389   1.549       .  S
O2079     Ni2903   1.885       .  S
O2079      C2089   1.273       .  A
O2080     Ni2087   1.879       .  S
O2080      C2090   1.272       .  A
O2081     Ni2087   1.964       .  S
O2081      C2091   1.291       .  A
O2082     Ni2903   1.955       .  S
O2082      C2092   1.289       .  A
O2083     Ni2904   1.933       .  S
O2083      C2092   1.283       .  A
O2084     Ni2088   1.934       .  S
O2084      C2091   1.283       .  A
O2085     Ni2088   1.905       .  S
O2085      C2090   1.280       .  A
O2086     Ni2904   1.902       .  S
O2086      C2089   1.280       .  A
Ni2087     O2895   1.884       .  S
Ni2087     O2898   1.960       .  S
Ni2087    Ni2088   2.387       .  S
Ni2088     O2899   1.933       .  S
Ni2088     O2902   1.901       .  S
C2089      C2373   1.457       .  S
C2090      C2338   1.449       .  S
C2091      C2325   1.515       .  S
C2092      C2354   1.511       .  S
C2093      C2094   1.508       .  S
C2093      C2099   1.559       .  S
C2093      C2097   1.515       .  S
C2093      C2370   1.514       .  S
C2094      H2101   1.084       .  S
C2095      C2096   1.566   1_554  S
C2096      C2100   1.556       .  S
C2096      C2098   1.576   1_556  S
C2096      H2102   1.108       .  S
C2097      H2103   1.083       .  S
C2100      C2357   1.535       .  S
C2105      C2106   1.510       .  S
C2105      C2111   1.544   1_556  S
C2105      C2109   1.529       .  S
C2105      C2341   1.512       .  S
C2106      H2113   1.088       .  S
C2107      C2108   1.579       .  S
C2108      C2112   1.570       .  S
C2108      C2110   1.562       .  S
C2108      H2114   1.105       .  S
C2109      H2115   1.080       .  S
C2112      C2322   1.544       .  S
O2117      C2127   1.278       .  A
O2118     Ni2125   1.903   1_655  S
O2118      C2128   1.277       .  A
O2119     Ni2125   1.946   1_655  S
O2119      C2129   1.287       .  A
O2120      C2130   1.287       .  A
O2121      C2130   1.283       .  A
O2122     Ni2126   1.929   1_655  S
O2122      C2129   1.284       .  A
O2123     Ni2126   1.882   1_655  S
O2123      C2128   1.276       .  A
O2124      C2127   1.274       .  A
Ni2125    Ni2126   2.388       .  S
C2127      C2306   1.446       .  S
C2128      C2274   1.450       .  S
C2129      C2258   1.514       .  S
C2130      C2290   1.504       .  S
C2131      C2132   1.535       .  S
C2131      C2137   1.537       .  S
C2131      C2135   1.520       .  S
C2131      C2309   1.519       .  S
C2132      H2139   1.076       .  S
C2133      C2134   1.562   1_554  S
C2134      C2138   1.558       .  S
C2134      C2136   1.572   1_556  S
C2134      H2140   1.110       .  S
C2135      H2141   1.085       .  S
C2138      C2293   1.523       .  S
C2143      C2144   1.537       .  S
C2143      C2149   1.530       .  S
C2143      C2147   1.523       .  S
C2143      C2277   1.514       .  S
C2144      H2151   1.081       .  S
C2145      C2146   1.569       .  S
C2146      C2150   1.563       .  S
C2146      C2148   1.555       .  S
C2146      H2152   1.110       .  S
C2147      H2153   1.070       .  S
C2150      C2261   1.504       .  S
O2155     Ni2163   1.933       .  S
O2155      C2165   1.283       .  A
O2156      C2166   1.283       .  A
O2157      C2167   1.278       .  A
O2158     Ni2163   1.898       .  S
O2158      C2168   1.278       .  A
O2159     Ni2164   1.900   1_655  S
O2159      C2168   1.274       .  A
O2160      C2167   1.275       .  A
O2161      C2166   1.289       .  A
O2162     Ni2164   1.959   1_655  S
O2162      C2165   1.291       .  A
Ni2163    Ni2164   2.387   1_655  S
C2165      C2194   1.518       .  S
C2166      C2242   1.507       .  S
C2167      C2226   1.451       .  S
C2168      C2210   1.459       .  S
C2169      C2170   1.521       .  S
C2169      C2175   1.548       .  S
C2169      C2173   1.521       .  S
C2169      C2229   1.528       .  S
C2170      H2177   1.074       .  S
C2171      C2172   1.585       .  S
C2172      C2176   1.571       .  S
C2172      C2174   1.565       .  S
C2172      H2178   1.103       .  S
C2173      H2179   1.076       .  S
C2176      C2245   1.551       .  S
C2181      C2182   1.502       .  S
C2181      C2187   1.551       .  S
C2181      C2185   1.527       .  S
C2181      C2213   1.518       .  S
C2182      H2189   1.079       .  S
C2183      C2184   1.568   1_554  S
C2184      C2188   1.577       .  S
C2184      C2186   1.572   1_556  S
C2184      H2190   1.099       .  S
C2185      H2191   1.079       .  S
C2188      C2197   1.557       .  S
C2193      C2194   1.406       .  A
C2193      C2198   1.421       .  A
C2193      H2200   1.085       .  S
C2194      C2195   1.413       .  A
C2195      C2202   1.507       .  S
C2195      C2196   1.418       .  A
C2196      C2197   1.424       .  A
C2196      H2201   1.082       .  S
C2197      C2198   1.439       .  A
C2198      C2199   1.506       .  S
C2199      H2203   1.111       .  S
C2199      H2204   1.087       .  S
C2199      H2205   1.111       .  S
C2202      H2206   1.110       .  S
C2202      H2207   1.111       .  S
C2202      H2208   1.111       .  S
C2209      C2210   1.399       .  A
C2209      C2214   1.393       .  A
C2209      H2216   1.085       .  S
C2210      C2211   1.413       .  A
C2211      C2218   1.509       .  S
C2211      C2212   1.396       .  A
C2212      C2213   1.407       .  A
C2212      H2217   1.082       .  S
C2213      C2214   1.420       .  A
C2214      C2215   1.510       .  S
C2215      H2219   1.111       .  S
C2215      H2220   1.110       .  S
C2215      H2221   1.106       .  S
C2218      H2222   1.103       .  S
C2218      H2223   1.110       .  S
C2218      H2224   1.110       .  S
C2225      C2226   1.397       .  A
C2225      C2230   1.400       .  A
C2225      H2232   1.085       .  S
C2226      C2227   1.400       .  A
C2227      C2234   1.510       .  S
C2227      C2228   1.388       .  A
C2228      C2229   1.417       .  A
C2228      H2233   1.085       .  S
C2229      C2230   1.424       .  A
C2230      C2231   1.503       .  S
C2231      H2235   1.111       .  S
C2231      H2236   1.109       .  S
C2231      H2237   1.108       .  S
C2234      H2238   1.108       .  S
C2234      H2239   1.111       .  S
C2234      H2240   1.111       .  S
C2241      C2242   1.408       .  A
C2241      C2246   1.429       .  A
C2241      H2248   1.084       .  S
C2242      C2243   1.405       .  A
C2243      C2250   1.506       .  S
C2243      C2244   1.406       .  A
C2244      C2245   1.421       .  A
C2244      H2249   1.079       .  S
C2245      C2246   1.434       .  A
C2246      C2247   1.504       .  S
C2247      H2251   1.111       .  S
C2247      H2252   1.099       .  S
C2247      H2253   1.109       .  S
C2250      H2254   1.104       .  S
C2250      H2255   1.108       .  S
C2250      H2256   1.111       .  S
C2257      C2258   1.411       .  A
C2257      C2262   1.417       .  A
C2257      H2264   1.084       .  S
C2258      C2259   1.423       .  A
C2259      C2266   1.501       .  S
C2259      C2260   1.406       .  A
C2260      C2261   1.401       .  A
C2260      H2265   1.082       .  S
C2261      C2262   1.419       .  A
C2262      C2263   1.503       .  S
C2263      H2267   1.110       .  S
C2263      H2268   1.106       .  S
C2263      H2269   1.110       .  S
C2266      H2270   1.109       .  S
C2266      H2271   1.104       .  S
C2266      H2272   1.111       .  S
C2273      C2274   1.390       .  A
C2273      C2278   1.386       .  A
C2273      H2280   1.086       .  S
C2274      C2275   1.404       .  A
C2275      C2282   1.508       .  S
C2275      C2276   1.398       .  A
C2276      C2277   1.411       .  A
C2276      H2281   1.076       .  S
C2277      C2278   1.435       .  A
C2278      C2279   1.526       .  S
C2279      H2283   1.111       .  S
C2279      H2284   1.104       .  S
C2282      H2286   1.110       .  S
C2282      H2287   1.111       .  S
C2282      H2288   1.111       .  S
C2289      C2290   1.403       .  A
C2289      C2294   1.411       .  A
C2289      H2296   1.084       .  S
C2290      C2291   1.422       .  A
C2291      C2298   1.507       .  S
C2291      C2292   1.416       .  A
C2292      C2293   1.406       .  A
C2292      H2297   1.077       .  S
C2293      C2294   1.427       .  A
C2294      C2295   1.508       .  S
C2295      H2299   1.111       .  S
C2295      H2301   1.109       .  S
C2298      H2302   1.107       .  S
C2298      H2303   1.111       .  S
C2298      H2304   1.109       .  S
C2305      C2306   1.390       .  A
C2305      C2310   1.388       .  A
C2305      H2312   1.086       .  S
C2306      C2307   1.404       .  A
C2307      C2314   1.510       .  S
C2307      C2308   1.397       .  A
C2308      C2309   1.413       .  A
C2308      H2313   1.076       .  S
C2309      C2310   1.432       .  A
C2310      C2311   1.519       .  S
C2311      H2315   1.110       .  S
C2311      H2317   1.103       .  S
C2314      H2318   1.108       .  S
C2314      H2319   1.111       .  S
C2314      H2320   1.108       .  S
C2321      C2322   1.416       .  A
C2321      C2326   1.414       .  A
C2321      H2328   1.083       .  S
C2322      C2323   1.434       .  A
C2323      C2330   1.501       .  S
C2323      C2324   1.425       .  A
C2324      C2325   1.405       .  A
C2324      H2329   1.085       .  S
C2325      C2326   1.415       .  A
C2326      C2327   1.505       .  S
C2327      H2331   1.111       .  S
C2327      H2332   1.111       .  S
C2327      H2333   1.108       .  S
C2330      H2334   1.111       .  S
C2330      H2335   1.093       .  S
C2330      H2336   1.111       .  S
C2337      C2338   1.399       .  A
C2337      C2342   1.392       .  A
C2337      H2344   1.085       .  S
C2338      C2339   1.402       .  A
C2339      C2346   1.507       .  S
C2339      C2340   1.391       .  A
C2340      C2341   1.409       .  A
C2340      H2345   1.078       .  S
C2341      C2342   1.419       .  A
C2342      C2343   1.511       .  S
C2343      H2347   1.111       .  S
C2343      H2348   1.105       .  S
C2343      H2349   1.110       .  S
C2346      H2350   1.111       .  S
C2346      H2351   1.105       .  S
C2346      H2352   1.110       .  S
C2353      C2354   1.405       .  A
C2353      C2358   1.416       .  A
C2353      H2360   1.084       .  S
C2354      C2355   1.421       .  A
C2355      C2362   1.508       .  S
C2355      C2356   1.417       .  A
C2356      C2357   1.409       .  A
C2356      H2361   1.078       .  S
C2357      C2358   1.428       .  A
C2358      C2359   1.508       .  S
C2359      H2363   1.111       .  S
C2359      H2364   1.110       .  S
C2359      H2365   1.108       .  S
C2362      H2366   1.107       .  S
C2362      H2367   1.110       .  S
C2362      H2368   1.111       .  S
C2369      C2370   1.405       .  A
C2369      C2374   1.389       .  A
C2369      H2376   1.082       .  S
C2370      C2371   1.418       .  A
C2371      C2378   1.508       .  S
C2371      C2372   1.394       .  A
C2372      C2373   1.400       .  A
C2372      H2377   1.085       .  S
C2373      C2374   1.412       .  A
C2374      C2375   1.510       .  S
C2375      H2379   1.111       .  S
C2375      H2380   1.111       .  S
C2375      H2381   1.110       .  S
C2378      H2382   1.111       .  S
C2378      H2383   1.107       .  S
C2378      H2384   1.111       .  S
C2385      C2386   1.405       .  A
C2385      C2390   1.421       .  A
C2385      H2392   1.082       .  S
C2386      C2387   1.408       .  A
C2387      C2394   1.509       .  S
C2387      C2388   1.410       .  A
C2388      C2389   1.424       .  A
C2388      H2393   1.079       .  S
C2389      C2390   1.432       .  A
C2390      C2391   1.506       .  S
C2391      H2395   1.111       .  S
C2391      H2396   1.106       .  S
C2391      H2397   1.101       .  S
C2394      H2398   1.110       .  S
C2394      H2399   1.111       .  S
C2394      H2400   1.111       .  S
C2401      C2402   1.396       .  A
C2401      C2406   1.394       .  A
C2401      H2408   1.085       .  S
C2402      C2403   1.406       .  A
C2403      C2410   1.510       .  S
C2403      C2404   1.392       .  A
C2404      C2405   1.408       .  A
C2404      H2409   1.079       .  S
C2405      C2406   1.421       .  A
C2406      C2407   1.509       .  S
C2407      H2411   1.111       .  S
C2407      H2412   1.111       .  S
C2407      H2413   1.105       .  S
C2410      H2414   1.111       .  S
C2410      H2415   1.110       .  S
C2410      H2416   1.111       .  S
C2417      C2418   1.391       .  A
C2417      C2422   1.389       .  A
C2417      H2424   1.085       .  S
C2418      C2419   1.407       .  A
C2419      C2426   1.511       .  S
C2419      C2420   1.395       .  A
C2420      C2421   1.410       .  A
C2420      H2425   1.075       .  S
C2421      C2422   1.432       .  A
C2422      C2423   1.517       .  S
C2423      H2427   1.111       .  S
C2423      H2428   1.104       .  S
C2423      H2429   1.102       .  S
C2426      H2430   1.109       .  S
C2426      H2431   1.110       .  S
C2426      H2432   1.111       .  S
C2433      C2434   1.405       .  A
C2433      C2438   1.418       .  A
C2433      H2440   1.080       .  S
C2434      C2435   1.419       .  A
C2435      C2442   1.507       .  S
C2435      C2436   1.406       .  A
C2436      C2437   1.408       .  A
C2436      H2441   1.081       .  S
C2437      C2438   1.423       .  A
C2438      C2439   1.505       .  S
C2439      H2443   1.110       .  S
C2439      H2444   1.110       .  S
C2439      H2445   1.110       .  S
C2442      H2446   1.110       .  S
C2442      H2447   1.104       .  S
C2442      H2448   1.110       .  S
O2449     Ni2457   1.932       .  S
O2449      C2459   1.283       .  A
O2450      C2460   1.283       .  A
O2451      C2461   1.279       .  A
O2452     Ni2457   1.894       .  S
O2452      C2462   1.278       .  A
O2453      C2462   1.275       .  A
O2454     Ni2458   1.886       .  S
O2454      C2461   1.274       .  A
O2455     Ni2458   1.947       .  S
O2455      C2460   1.287       .  A
O2456      C2459   1.287       .  A
C2459      C2794   1.505       .  S
C2460      C2845   1.511       .  S
C2461      C2826   1.453       .  S
C2462      C2810   1.449       .  S
C2463      C2464   1.534       .  S
C2463      C2469   1.540       .  S
C2463      C2467   1.522       .  S
C2463      C2829   1.520       .  S
C2464      H2471   1.081       .  S
C2464      C2873   1.359       .  D
C2465      C2466   1.556   1_556  S
C2465      C2872   1.362       .  D
C2465      C2949   1.478   1_556  S
C2466      C2470   1.551       .  S
C2466      C2468   1.559   1_554  S
C2466      H2472   1.111       .  S
C2467      H2473   1.070       .  S
C2467      C2876   1.351       .  D
C2468      C2875   1.353       .  D
C2468      C2914   1.487   1_556  S
C2469      H2882   1.086       .  S
C2469      C2878   1.358       .  D
C2470      C2877   1.355   1_554  D
C2470      C2842   1.503       .  S
H2474      C2877   1.086       .  S
C2475      C2476   1.500       .  S
C2475      C2481   1.548       .  S
C2475      C2479   1.533       .  S
C2475      C2813   1.516       .  S
C2476      H2483   1.081       .  S
C2476      C2885   1.346       .  D
C2477      C2478   1.567       .  S
C2477      C2884   1.349       .  D
C2477      C2987   1.486       .  S
C2478      C2482   1.570       .  S
C2478      C2480   1.571       .  S
C2478      H2484   1.098       .  S
C2479      H2485   1.087       .  S
C2479      C2888   1.355       .  D
C2480      C2887   1.354       .  D
C2480      C2926   1.490       .  S
C2481      H2894   1.073       .  S
C2481      C2890   1.377   1_554  D
C2482      C2889   1.375       .  D
C2482      C2797   1.548       .  S
H2486      C2889   1.079       .  S
O2487      C2497   1.274       .  A
O2488     Ni2495   1.880   1_565  S
O2488      C2498   1.273       .  A
O2489     Ni2495   1.964   1_565  S
O2489      C2499   1.291       .  A
O2490      C2500   1.290       .  A
O2491      C2500   1.283       .  A
O2492     Ni2496   1.933   1_565  S
O2492      C2499   1.283       .  A
O2493     Ni2496   1.904   1_565  S
O2493      C2498   1.280       .  A
O2494      C2497   1.280       .  A
Ni2495    Ni2496   2.387       .  S
C2497      C2781   1.457       .  S
C2498      C2746   1.449       .  S
C2499      C2733   1.515       .  S
C2500      C2762   1.513       .  S
C2501      C2502   1.508       .  S
C2501      C2507   1.559       .  S
C2501      C2505   1.515       .  S
C2501      C2778   1.515       .  S
C2502      H2509   1.084       .  S
C2502      C2911   1.352       .  D
C2503      C2504   1.568       .  S
C2503      C2910   1.352       .  D
C2503      C2961   1.482       .  S
C2504      C2508   1.557       .  S
C2504      C2506   1.578       .  S
C2504      H2510   1.109       .  S
C2505      H2511   1.083       .  S
C2505      C2914   1.357       .  D
C2506      C2913   1.356       .  D
C2506      C2876   1.489       .  S
C2507      H2920   1.083       .  S
C2507      C2916   1.366   1_554  D
C2508      C2915   1.366       .  D
C2508      C2765   1.536       .  S
H2512      C2915   1.083       .  S
C2513      C2514   1.510       .  S
C2513      C2519   1.543       .  S
C2513      C2517   1.530       .  S
C2513      C2749   1.511       .  S
C2514      H2521   1.088       .  S
C2514      C2923   1.348       .  D
C2515      C2516   1.579   1_556  S
C2515      C2922   1.350       .  D
C2515      C2999   1.481   1_556  S
C2516      C2520   1.572       .  S
C2516      C2518   1.563   1_554  S
C2516      H2522   1.106       .  S
C2517      H2523   1.080       .  S
C2517      C2926   1.356       .  D
C2518      C2925   1.354       .  D
C2518      C2888   1.490   1_556  S
C2519      H2932   1.086       .  S
C2519      C2928   1.371       .  D
C2520      C2927   1.373       .  D
C2520      C2730   1.545       .  S
H2524      C2927   1.085       .  S
O2525      C2535   1.278       .  A
O2526     Ni2533   1.901   1_655  S
O2526      C2536   1.276       .  A
O2527     Ni2533   1.946   1_655  S
O2527      C2537   1.287       .  A
O2528      C2538   1.288       .  A
O2529      C2538   1.283       .  A
O2530     Ni2534   1.929   1_655  S
O2530      C2537   1.284       .  A
O2531     Ni2534   1.879   1_655  S
O2531      C2536   1.276       .  A
O2532      C2535   1.274       .  A
Ni2533    Ni2534   2.389       .  S
C2535      C2714   1.444       .  S
C2536      C2682   1.448       .  S
C2537      C2666   1.514       .  S
C2538      C2698   1.505       .  S
C2539      C2540   1.535       .  S
C2539      C2545   1.535   1_554  S
C2539      C2543   1.519       .  S
C2539      C2717   1.518       .  S
C2540      H2547   1.076       .  S
C2540      C2949   1.362       .  D
C2541      C2542   1.561       .  S
C2541      C2948   1.361       .  D
C2541      C2873   1.478       .  S
C2542      C2546   1.559       .  S
C2542      C2544   1.570       .  S
C2542      H2548   1.110       .  S
C2543      H2549   1.085       .  S
C2543      C2952   1.352       .  D
C2544      C2951   1.350       .  D
C2544      C2990   1.489       .  S
C2545      H2958   1.082       .  S
C2545      C2954   1.360       .  D
C2546      C2953   1.359       .  D
C2546      C2701   1.523       .  S
H2550      C2953   1.083       .  S
C2551      C2552   1.537       .  S
C2551      C2557   1.530       .  S
C2551      C2555   1.522       .  S
C2551      C2685   1.513       .  S
C2552      H2559   1.081       .  S
C2552      C2961   1.366       .  D
C2553      C2554   1.569   1_556  S
C2553      C2960   1.364       .  D
C2553      C2911   1.482   1_556  S
C2554      C2558   1.564       .  S
C2554      C2556   1.557       .  S
C2554      H2560   1.110       .  S
C2555      H2561   1.069       .  S
C2555      C2964   1.348       .  D
C2556      C2963   1.348   1_554  D
C2556      C3002   1.495       .  S
C2557      H2970   1.087       .  S
C2557      C2966   1.349       .  D
C2558      C2965   1.351       .  D
C2558      C2669   1.504       .  S
H2562      C2965   1.086       .  S
O2563     Ni2571   1.933       .  S
O2563      C2573   1.283       .  A
O2564      C2574   1.282       .  A
O2565      C2575   1.278       .  A
O2566     Ni2571   1.897       .  S
O2566      C2576   1.278       .  A
O2567     Ni2572   1.899   1_655  S
O2567      C2576   1.274       .  A
O2568      C2575   1.275       .  A
O2569      C2574   1.289       .  A
O2570     Ni2572   1.959   1_655  S
O2570      C2573   1.291       .  A
Ni2571    Ni2572   2.387   1_655  S
C2573      C2602   1.517       .  S
C2574      C2650   1.505       .  S
C2575      C2634   1.449       .  S
C2576      C2618   1.458       .  S
C2577      C2578   1.521       .  S
C2577      C2583   1.547       .  S
C2577      C2581   1.521       .  S
C2577      C2637   1.526       .  S
C2578      H2585   1.074       .  S
C2578      C2987   1.359       .  D
C2579      C2580   1.582   1_556  S
C2579      C2986   1.361       .  D
C2579      C2885   1.488   1_556  S
C2580      C2584   1.568       .  S
C2580      C2582   1.563   1_554  S
C2580      H2586   1.103       .  S
C2581      H2587   1.075       .  S
C2581      C2990   1.346       .  D
C2582      C2989   1.345       .  D
C2582      C2952   1.490   1_556  S
C2583      H2996   1.084       .  S
C2583      C2992   1.372       .  D
C2584      C2991   1.372   1_554  D
C2584      C2653   1.550       .  S
H2588      C2991   1.084       .  S
C2589      C2590   1.502       .  S
C2589      C2595   1.551       .  S
C2589      C2593   1.527       .  S
C2589      C2621   1.518       .  S
C2590      H2597   1.079       .  S
C2590      C2999   1.345       .  D
C2591      C2592   1.567       .  S
C2591      C2998   1.343       .  D
C2591      C2923   1.477       .  S
C2592      C2596   1.577       .  S
C2592      C2594   1.572       .  S
C2592      H2598   1.099       .  S
C2593      H2599   1.078       .  S
C2593      C3002   1.355       .  D
C2594      C3001   1.355       .  D
C2594      C2964   1.492       .  S
C2595      H3008   1.084       .  S
C2595      C3004   1.376   1_554  D
C2596      C3003   1.378       .  D
C2596      C2605   1.557       .  S
H2600      C3003   1.084       .  S
C2601      C2602   1.406       .  A
C2601      C2606   1.422       .  A
C2601      H2608   1.085       .  S
C2602      C2603   1.413       .  A
C2603      C2610   1.507       .  S
C2603      C2604   1.417       .  A
C2604      C2605   1.423       .  A
C2604      H2609   1.082       .  S
C2605      C2606   1.440       .  A
C2606      C2607   1.506       .  S
C2607      H2611   1.111       .  S
C2607      H2612   1.088       .  S
C2607      H2613   1.112       .  S
C2610      H2614   1.110       .  S
C2610      H2615   1.111       .  S
C2610      H2616   1.111       .  S
C2617      C2618   1.398       .  A
C2617      C2622   1.393       .  A
C2617      H2624   1.085       .  S
C2618      C2619   1.413       .  A
C2619      C2626   1.509       .  S
C2619      C2620   1.395       .  A
C2620      C2621   1.408       .  A
C2620      H2625   1.082       .  S
C2621      C2622   1.420       .  A
C2622      C2623   1.509       .  S
C2623      H2627   1.111       .  S
C2623      H2628   1.110       .  S
C2623      H2629   1.106       .  S
C2626      H2630   1.103       .  S
C2626      H2631   1.110       .  S
C2626      H2632   1.111       .  S
C2633      C2634   1.397       .  A
C2633      C2638   1.399       .  A
C2633      H2640   1.085       .  S
C2634      C2635   1.400       .  A
C2635      C2642   1.511       .  S
C2635      C2636   1.387       .  A
C2636      C2637   1.418       .  A
C2636      H2641   1.085       .  S
C2637      C2638   1.424       .  A
C2638      C2639   1.503       .  S
C2639      H2643   1.111       .  S
C2639      H2644   1.109       .  S
C2639      H2645   1.109       .  S
C2642      H2646   1.109       .  S
C2642      H2647   1.111       .  S
C2642      H2648   1.111       .  S
C2649      C2650   1.408       .  A
C2649      C2654   1.429       .  A
C2649      H2656   1.084       .  S
C2650      C2651   1.405       .  A
C2651      C2658   1.506       .  S
C2651      C2652   1.406       .  A
C2652      C2653   1.420       .  A
C2652      H2657   1.080       .  S
C2653      C2654   1.435       .  A
C2654      C2655   1.505       .  S
C2655      H2659   1.111       .  S
C2655      H2660   1.098       .  S
C2655      H2661   1.109       .  S
C2658      H2662   1.104       .  S
C2658      H2663   1.108       .  S
C2658      H2664   1.111       .  S
C2665      C2666   1.411       .  A
C2665      C2670   1.417       .  A
C2665      H2672   1.084       .  S
C2666      C2667   1.422       .  A
C2667      C2674   1.501       .  S
C2667      C2668   1.406       .  A
C2668      C2669   1.400       .  A
C2668      H2673   1.081       .  S
C2669      C2670   1.420       .  A
C2670      C2671   1.504       .  S
C2671      H2675   1.110       .  S
C2671      H2676   1.106       .  S
C2671      H2677   1.110       .  S
C2674      H2678   1.109       .  S
C2674      H2679   1.104       .  S
C2674      H2680   1.111       .  S
C2681      C2682   1.390       .  A
C2681      C2686   1.385       .  A
C2681      H2688   1.086       .  S
C2682      C2683   1.404       .  A
C2683      C2690   1.508       .  S
C2683      C2684   1.397       .  A
C2684      C2685   1.411       .  A
C2684      H2689   1.076       .  S
C2685      C2686   1.435       .  A
C2686      C2687   1.526       .  S
C2687      H2691   1.111       .  S
C2687      H2692   1.104       .  S
C2687      H3101   1.104       .  S
C2690      H2694   1.110       .  S
C2690      H2695   1.111       .  S
C2690      H2696   1.111       .  S
H2693      C3095   1.104       .  S
C2697      C2698   1.404       .  A
C2697      C2702   1.412       .  A
C2697      H2704   1.084       .  S
C2698      C2699   1.422       .  A
C2699      C2706   1.507       .  S
C2699      C2700   1.415       .  A
C2700      C2701   1.406       .  A
C2700      H2705   1.077       .  S
C2701      C2702   1.426       .  A
C2702      C2703   1.508       .  S
C2703      H2707   1.111       .  S
C2703      H3116   1.110       .  S
C2703      H2709   1.109       .  S
C2706      H2710   1.107       .  S
C2706      H2711   1.111       .  S
C2706      H2712   1.109       .  S
H2708      C3111   1.110       .  S
C2713      C2714   1.390       .  A
C2713      C2718   1.388       .  A
C2713      H2720   1.085       .  S
C2714      C2715   1.404       .  A
C2715      C2722   1.510       .  S
C2715      C2716   1.396       .  A
C2716      C2717   1.412       .  A
C2716      H2721   1.076       .  S
C2717      C2718   1.432       .  A
C2718      C2719   1.519       .  S
C2719      H2723   1.109       .  S
C2719      H3132   1.106       .  S
C2719      H2725   1.104       .  S
C2722      H2726   1.108       .  S
C2722      H2727   1.111       .  S
C2722      H2728   1.108       .  S
H2724      C3127   1.105       .  S
C2729      C2730   1.416       .  A
C2729      C2734   1.414       .  A
C2729      H2736   1.083       .  S
C2730      C2731   1.434       .  A
C2731      C2738   1.501       .  S
C2731      C2732   1.425       .  A
C2732      C2733   1.406       .  A
C2732      H2737   1.085       .  S
C2733      C2734   1.414       .  A
C2734      C2735   1.505       .  S
C2735      H2739   1.111       .  S
C2735      H2740   1.111   1_565  S
C2735      H2741   1.108       .  S
C2738      H2742   1.111       .  S
C2738      H2743   1.094       .  S
C2738      H2744   1.111       .  S
C2745      C2746   1.399       .  A
C2745      C2750   1.392       .  A
C2745      H2752   1.085       .  S
C2746      C2747   1.402       .  A
C2747      C2754   1.507       .  S
C2747      C2748   1.391       .  A
C2748      C2749   1.409       .  A
C2748      H2753   1.078       .  S
C2749      C2750   1.420       .  A
C2750      C2751   1.511       .  S
C2751      H2755   1.111       .  S
C2751      H2756   1.105       .  S
C2751      H2757   1.110       .  S
C2754      H2758   1.111       .  S
C2754      H2759   1.106       .  S
C2754      H2760   1.110       .  S
C2761      C2762   1.405       .  A
C2761      C2766   1.417       .  A
C2761      H2768   1.084       .  S
C2762      C2763   1.421       .  A
C2763      C2770   1.508       .  S
C2763      C2764   1.418       .  A
C2764      C2765   1.409       .  A
C2764      H2769   1.078       .  S
C2765      C2766   1.429       .  A
C2766      C2767   1.508       .  S
C2767      H2771   1.111       .  S
C2767      H2772   1.110       .  S
C2767      H2773   1.108       .  S
C2770      H2774   1.107       .  S
C2770      H2775   1.110       .  S
C2770      H2776   1.111       .  S
C2777      C2778   1.405       .  A
C2777      C2782   1.389       .  A
C2777      H2784   1.082       .  S
C2778      C2779   1.418       .  A
C2779      C2786   1.508       .  S
C2779      C2780   1.395       .  A
C2780      C2781   1.400       .  A
C2780      H2785   1.085       .  S
C2781      C2782   1.412       .  A
C2782      C2783   1.510       .  S
C2783      H2787   1.111       .  S
C2783      H2788   1.111       .  S
C2783      H2789   1.110       .  S
C2786      H2790   1.110       .  S
C2786      H2791   1.107       .  S
C2786      H2792   1.111       .  S
C2793      C2794   1.406       .  A
C2793      C2798   1.422       .  A
C2793      H2800   1.082       .  S
C2794      C2795   1.408       .  A
C2795      C2802   1.509       .  S
C2795      C2796   1.409       .  A
C2796      C2797   1.423       .  A
C2796      H2801   1.079       .  S
C2797      C2798   1.432       .  A
C2798      C2799   1.506       .  S
C2799      H2803   1.111       .  S
C2799      H2804   1.107       .  S
C2799      H2805   1.101       .  S
C2802      H2806   1.109       .  S
C2802      H2807   1.111       .  S
C2802      H2808   1.111       .  S
C2809      C2810   1.397       .  A
C2809      C2814   1.392       .  A
C2809      H2816   1.085       .  S
C2810      C2811   1.407       .  A
C2811      C2818   1.509       .  S
C2811      C2812   1.392       .  A
C2812      C2813   1.407       .  A
C2812      H2817   1.081       .  S
C2813      C2814   1.419       .  A
C2814      C2815   1.509       .  S
C2815      H2819   1.111       .  S
C2815      H2820   1.111       .  S
C2815      H2821   1.106       .  S
C2818      H2822   1.111       .  S
C2818      H2823   1.110       .  S
C2818      H2824   1.111       .  S
C2825      C2826   1.391       .  A
C2825      C2830   1.390       .  A
C2825      H2832   1.084       .  S
C2826      C2827   1.407       .  A
C2827      C2834   1.511       .  S
C2827      C2828   1.395       .  A
C2828      C2829   1.411       .  A
C2828      H2833   1.075       .  S
C2829      C2830   1.432       .  A
C2830      C2831   1.518       .  S
C2831      H2835   1.111       .  S
C2831      H2836   1.104       .  S
C2831      H2837   1.102       .  S
C2834      H2838   1.109       .  S
C2834      H2839   1.110       .  S
C2834      H2840   1.111       .  S
C2841      C2842   1.405       .  A
C2841      C2846   1.417       .  A
C2841      H2848   1.079       .  S
C2842      C2843   1.419       .  A
C2843      C2850   1.507       .  S
C2843      C2844   1.404       .  A
C2844      C2845   1.408       .  A
C2844      H2849   1.081       .  S
C2845      C2846   1.422       .  A
C2846      C2847   1.505       .  S
C2847      H2851   1.110       .  S
C2847      H2852   1.110       .  S
C2847      H2853   1.110       .  S
C2850      H2854   1.109       .  S
C2850      H2855   1.104       .  S
C2850      H2856   1.110       .  S
O2857     Ni2865   1.925       .  S
O2857      C2867   1.280       .  A
O2858      C2868   1.285       .  A
O2859      C2869   1.279       .  A
O2860     Ni2865   1.895       .  S
O2860      C2870   1.278       .  A
O2861      C2870   1.274       .  A
O2862     Ni2866   1.889       .  S
O2862      C2869   1.275       .  A
O2863     Ni2866   1.941       .  S
O2863      C2868   1.286       .  A
O2864      C2867   1.288       .  A
C2867      C3202   1.499       .  S
C2868      C3253   1.514       .  S
C2869      C3234   1.457       .  S
C2870      C3218   1.447       .  S
C2871      C2872   1.538       .  S
C2871      C2877   1.539       .  S
C2871      C2875   1.522       .  S
C2871      C3237   1.521       .  S
C2872      H2879   1.081       .  S
C2873      C2874   1.560       .  S
C2874      C2878   1.554       .  S
C2874      C2876   1.560       .  S
C2874      H2880   1.111       .  S
C2875      H2881   1.070       .  S
C2878      C3250   1.506       .  S
C2883      C2884   1.508       .  S
C2883      C2889   1.547       .  S
C2883      C2887   1.524       .  S
C2883      C3221   1.514       .  S
C2884      H2891   1.081       .  S
C2885      C2886   1.574   1_554  S
C2886      C2890   1.576       .  S
C2886      C2888   1.562   1_556  S
C2886      H2892   1.098       .  S
C2887      H2893   1.087       .  S
C2890      C3205   1.557       .  S
O2895      C2905   1.273       .  A
O2896     Ni2903   1.880   1_565  S
O2896      C2906   1.273       .  A
O2897     Ni2903   1.960   1_565  S
O2897      C2907   1.290       .  A
O2898      C2908   1.291       .  A
O2899      C2908   1.283       .  A
O2900     Ni2904   1.935   1_565  S
O2900      C2907   1.283       .  A
O2901     Ni2904   1.908   1_565  S
O2901      C2906   1.280       .  A
O2902      C2905   1.279       .  A
Ni2903    Ni2904   2.387       .  S
C2905      C3189   1.454       .  S
C2906      C3154   1.452       .  S
C2907      C3141   1.513       .  S
C2908      C3170   1.514       .  S
C2909      C2910   1.508       .  S
C2909      C2915   1.558       .  S
C2909      C2913   1.517       .  S
C2909      C3186   1.514       .  S
C2910      H2917   1.084       .  S
C2911      C2912   1.568   1_554  S
C2912      C2916   1.558       .  S
C2912      C2914   1.576   1_556  S
C2912      H2918   1.109       .  S
C2913      H2919   1.084       .  S
C2916      C3173   1.539       .  S
C2921      C2922   1.510       .  S
C2921      C2927   1.546   1_556  S
C2921      C2925   1.527       .  S
C2921      C3157   1.515       .  S
C2922      H2929   1.088       .  S
C2923      C2924   1.575       .  S
C2924      C2928   1.573       .  S
C2924      C2926   1.562       .  S
C2924      H2930   1.106       .  S
C2925      H2931   1.080       .  S
C2928      C3138   1.541       .  S
O2933      C2943   1.276       .  A
O2934     Ni2941   1.897       .  S
O2934      C2944   1.276       .  A
O2935     Ni2941   1.944       .  S
O2935      C2945   1.287       .  A
O2936      C2946   1.287       .  A
O2937      C2946   1.283       .  A
O2938     Ni2942   1.929       .  S
O2938      C2945   1.284       .  A
O2939     Ni2942   1.883       .  S
O2939      C2944   1.276       .  A
O2940      C2943   1.275       .  A
Ni2941    Ni2942   2.389       .  S
C2943      C3122   1.440       .  S
C2944      C3090   1.444       .  S
C2945      C3074   1.514       .  S
C2946      C3106   1.504       .  S
C2947      C2948   1.536       .  S
C2947      C2953   1.535       .  S
C2947      C2951   1.517       .  S
C2947      C3125   1.514       .  S
C2948      H2955   1.077       .  S
C2949      C2950   1.558   1_554  S
C2950      C2954   1.557       .  S
C2950      C2952   1.571   1_556  S
C2950      H2956   1.110       .  S
C2951      H2957   1.084       .  S
C2954      C3109   1.522       .  S
C2959      C2960   1.537       .  S
C2959      C2965   1.530   1_556  S
C2959      C2963   1.524       .  S
C2959      C3093   1.514       .  S
C2960      H2967   1.081       .  S
C2961      C2962   1.569       .  S
C2962      C2966   1.561       .  S
C2962      C2964   1.557       .  S
C2962      H2968   1.110       .  S
C2963      H2969   1.073       .  S
C2966      C3077   1.503       .  S
O2971     Ni2979   1.931       .  S
O2971      C2981   1.283       .  A
O2972      C2982   1.283       .  A
O2973      C2983   1.278       .  A
O2974     Ni2979   1.895       .  S
O2974      C2984   1.279       .  A
O2975     Ni2980   1.903   1_655  S
O2975      C2984   1.274       .  A
O2976      C2983   1.275       .  A
O2977      C2982   1.289       .  A
O2978     Ni2980   1.958   1_655  S
O2978      C2981   1.290       .  A
Ni2979    Ni2980   2.386   1_655  S
C2981      C3010   1.517       .  S
C2982      C3058   1.506       .  S
C2983      C3042   1.451       .  S
C2984      C3026   1.462       .  S
C2985      C2986   1.521       .  S
C2985      C2991   1.544       .  S
C2985      C2989   1.518       .  S
C2985      C3045   1.526       .  S
C2986      H2993   1.076       .  S
C2987      C2988   1.577       .  S
C2988      C2992   1.568       .  S
C2988      C2990   1.564       .  S
C2988      H2994   1.101       .  S
C2989      H2995   1.074       .  S
C2992      C3061   1.553       .  S
C2997      C2998   1.501       .  S
C2997      C3003   1.552       .  S
C2997      C3001   1.527       .  S
C2997      C3029   1.519       .  S
C2998      H3005   1.078       .  S
C2999      C3000   1.570   1_554  S
C3000      C3004   1.574       .  S
C3000      C3002   1.575   1_556  S
C3000      H3006   1.101       .  S
C3001      H3007   1.077       .  S
C3004      C3013   1.552       .  S
C3009      C3010   1.407       .  A
C3009      C3014   1.420       .  A
C3009      H3016   1.085       .  S
C3010      C3011   1.414       .  A
C3011      C3018   1.507       .  S
C3011      C3012   1.417       .  A
C3012      C3013   1.422       .  A
C3012      H3017   1.083       .  S
C3013      C3014   1.437       .  A
C3014      C3015   1.506       .  S
C3015      H3019   1.111       .  S
C3015      H3020   1.089       .  S
C3015      H3021   1.111       .  S
C3018      H3022   1.110       .  S
C3018      H3023   1.111       .  S
C3018      H3024   1.111       .  S
C3025      C3026   1.399       .  A
C3025      C3030   1.393       .  A
C3025      H3032   1.086       .  S
C3026      C3027   1.414       .  A
C3027      C3034   1.509       .  S
C3027      C3028   1.397       .  A
C3028      C3029   1.408       .  A
C3028      H3033   1.083       .  S
C3029      C3030   1.420       .  A
C3030      C3031   1.509       .  S
C3031      H3035   1.111       .  S
C3031      H3036   1.111       .  S
C3031      H3037   1.106       .  S
C3034      H3038   1.102       .  S
C3034      H3039   1.111       .  S
C3034      H3040   1.110       .  S
C3041      C3042   1.397       .  A
C3041      C3046   1.399       .  A
C3041      H3048   1.085       .  S
C3042      C3043   1.401       .  A
C3043      C3050   1.510       .  S
C3043      C3044   1.389       .  A
C3044      C3045   1.418       .  A
C3044      H3049   1.085       .  S
C3045      C3046   1.422       .  A
C3046      C3047   1.502       .  S
C3047      H3051   1.111       .  S
C3047      H3052   1.109       .  S
C3047      H3053   1.107       .  S
C3050      H3054   1.109       .  S
C3050      H3055   1.111       .  S
C3050      H3056   1.111       .  S
C3057      C3058   1.406       .  A
C3057      C3062   1.428       .  A
C3057      H3064   1.084       .  S
C3058      C3059   1.406       .  A
C3059      C3066   1.505       .  S
C3059      C3060   1.408       .  A
C3060      C3061   1.422       .  A
C3060      H3065   1.079       .  S
C3061      C3062   1.435       .  A
C3062      C3063   1.505       .  S
C3063      H3067   1.111       .  S
C3063      H3068   1.100       .  S
C3063      H3069   1.109       .  S
C3066      H3070   1.104       .  S
C3066      H3071   1.108       .  S
C3066      H3072   1.111       .  S
C3073      C3074   1.411       .  A
C3073      C3078   1.416       .  A
C3073      H3080   1.084       .  S
C3074      C3075   1.422       .  A
C3075      C3082   1.501       .  S
C3075      C3076   1.406       .  A
C3076      C3077   1.401       .  A
C3076      H3081   1.081       .  S
C3077      C3078   1.419       .  A
C3078      C3079   1.505       .  S
C3079      H3083   1.111       .  S
C3079      H3084   1.107       .  S
C3079      H3085   1.110       .  S
C3082      H3086   1.109       .  S
C3082      H3087   1.103       .  S
C3082      H3088   1.111       .  S
C3089      C3090   1.390       .  A
C3089      C3094   1.387       .  A
C3089      H3096   1.086       .  S
C3090      C3091   1.402       .  A
C3091      C3098   1.509       .  S
C3091      C3092   1.395       .  A
C3092      C3093   1.412       .  A
C3092      H3097   1.075       .  S
C3093      C3094   1.434       .  A
C3094      C3095   1.524       .  S
C3095      H3099   1.111       .  S
C3095      H3100   1.105       .  S
C3098      H3102   1.109       .  S
C3098      H3103   1.111       .  S
C3098      H3104   1.111       .  S
C3105      C3106   1.403       .  A
C3105      C3110   1.410       .  A
C3105      H3112   1.084       .  S
C3106      C3107   1.422       .  A
C3107      C3114   1.508       .  S
C3107      C3108   1.416       .  A
C3108      C3109   1.406       .  A
C3108      H3113   1.077       .  S
C3109      C3110   1.425       .  A
C3110      C3111   1.508       .  S
C3111      H3115   1.111       .  S
C3111      H3117   1.109       .  S
C3114      H3118   1.107       .  S
C3114      H3119   1.111       .  S
C3114      H3120   1.109       .  S
C3121      C3122   1.390       .  A
C3121      C3126   1.386       .  A
C3121      H3128   1.086       .  S
C3122      C3123   1.404       .  A
C3123      C3130   1.510       .  S
C3123      C3124   1.393       .  A
C3124      C3125   1.411       .  A
C3124      H3129   1.076       .  S
C3125      C3126   1.433       .  A
C3126      C3127   1.521       .  S
C3127      H3131   1.111       .  S
C3127      H3133   1.103       .  S
C3130      H3134   1.108       .  S
C3130      H3135   1.111       .  S
C3130      H3136   1.109       .  S
C3137      C3138   1.416       .  A
C3137      C3142   1.414       .  A
C3137      H3144   1.084       .  S
C3138      C3139   1.431       .  A
C3139      C3146   1.500       .  S
C3139      C3140   1.423       .  A
C3140      C3141   1.406       .  A
C3140      H3145   1.084       .  S
C3141      C3142   1.415       .  A
C3142      C3143   1.506       .  S
C3143      H3147   1.111       .  S
C3143      H3148   1.111   1_565  S
C3143      H3149   1.109       .  S
C3146      H3150   1.111       .  S
C3146      H3151   1.096       .  S
C3146      H3152   1.111       .  S
C3153      C3154   1.399       .  A
C3153      C3158   1.392       .  A
C3153      H3160   1.085       .  S
C3154      C3155   1.404       .  A
C3155      C3162   1.507       .  S
C3155      C3156   1.392       .  A
C3156      C3157   1.411       .  A
C3156      H3161   1.080       .  S
C3157      C3158   1.419       .  A
C3158      C3159   1.510       .  S
C3159      H3163   1.111       .  S
C3159      H3164   1.106       .  S
C3159      H3165   1.110       .  S
C3162      H3166   1.111       .  S
C3162      H3167   1.103       .  S
C3162      H3168   1.111       .  S
C3169      C3170   1.404       .  A
C3169      C3174   1.417       .  A
C3169      H3176   1.084       .  S
C3170      C3171   1.421       .  A
C3171      C3178   1.507       .  S
C3171      C3172   1.419       .  A
C3172      C3173   1.410       .  A
C3172      H3177   1.078       .  S
C3173      C3174   1.430       .  A
C3174      C3175   1.508       .  S
C3175      H3179   1.111       .  S
C3175      H3180   1.110       .  S
C3175      H3181   1.108       .  S
C3178      H3182   1.108       .  S
C3178      H3183   1.110       .  S
C3178      H3184   1.111       .  S
C3185      C3186   1.406       .  A
C3185      C3190   1.389       .  A
C3185      H3192   1.082       .  S
C3186      C3187   1.418       .  A
C3187      C3194   1.508       .  S
C3187      C3188   1.393       .  A
C3188      C3189   1.398       .  A
C3188      H3193   1.085       .  S
C3189      C3190   1.411       .  A
C3190      C3191   1.510       .  S
C3191      H3195   1.111       .  S
C3191      H3196   1.111       .  S
C3191      H3197   1.110       .  S
C3194      H3198   1.110       .  S
C3194      H3199   1.106       .  S
C3194      H3200   1.111       .  S
C3201      C3202   1.404       .  A
C3201      C3206   1.424       .  A
C3201      H3208   1.084       .  S
C3202      C3203   1.403       .  A
C3203      C3210   1.509       .  S
C3203      C3204   1.409       .  A
C3204      C3205   1.427       .  A
C3204      H3209   1.075       .  S
C3205      C3206   1.436       .  A
C3206      C3207   1.502       .  S
C3207      H3211   1.111       .  S
C3207      H3212   1.102       .  S
C3207      H3213   1.107       .  S
C3210      H3214   1.110       .  S
C3210      H3215   1.109       .  S
C3210      H3216   1.111       .  S
C3217      C3218   1.396       .  A
C3217      C3222   1.392       .  A
C3217      H3224   1.085       .  S
C3218      C3219   1.407       .  A
C3219      C3226   1.510       .  S
C3219      C3220   1.391       .  A
C3220      C3221   1.407       .  A
C3220      H3225   1.081       .  S
C3221      C3222   1.419       .  A
C3222      C3223   1.509       .  S
C3223      H3227   1.111       .  S
C3223      H3228   1.111       .  S
C3223      H3229   1.106       .  S
C3226      H3230   1.111       .  S
C3226      H3231   1.110       .  S
C3226      H3232   1.111       .  S
C3233      C3234   1.391       .  A
C3233      C3238   1.391       .  A
C3233      H3240   1.085       .  S
C3234      C3235   1.409       .  A
C3235      C3242   1.510       .  S
C3235      C3236   1.395       .  A
C3236      C3237   1.408       .  A
C3236      H3241   1.075       .  S
C3237      C3238   1.433       .  A
C3238      C3239   1.516       .  S
C3239      H3243   1.111       .  S
C3239      H3244   1.104       .  S
C3239      H3245   1.101       .  S
C3242      H3246   1.109       .  S
C3242      H3247   1.110       .  S
C3242      H3248   1.111       .  S
C3249      C3250   1.405       .  A
C3249      C3254   1.417       .  A
C3249      H3256   1.080       .  S
C3250      C3251   1.419       .  A
C3251      C3258   1.507       .  S
C3251      C3252   1.407       .  A
C3252      C3253   1.407       .  A
C3252      H3257   1.080       .  S
C3253      C3254   1.424       .  A
C3254      C3255   1.506       .  S
C3255      H3259   1.110       .  S
C3255      H3260   1.110       .  S
C3255      H3261   1.110       .  S
C3258      H3262   1.110       .  S
C3258      H3263   1.104       .  S
C3258      H3264   1.110       .  S
