geometry optimzed in LAMMPS
_audit_creation_date              2020-11-30 
_audit_creation_method            'lammps2cif' 
_symmetry_space_group_name_H-M    'P1' 
_symmetry_Int_Tables_number       1 
_symmetry_cell_setting            triclinic 
loop_ 
_symmetry_equiv_pos_as_xyz 
  x,y,z 
_cell_length_a                    31.9861673 
_cell_length_b                    32.129290412829256 
_cell_length_c                    31.273239702507034 
_cell_angle_alpha                 90.6017057475181 
_cell_angle_beta                  89.74828315176075 
_cell_angle_gamma                 90.50620202750143 
loop_ 
_atom_site_label 
_atom_site_type_symbol 
_atom_site_fract_x 
_atom_site_fract_y 
_atom_site_fract_z 
_atom_site_charge 
C1          C  0.50548634  0.26819167  0.00775322     0.79600
N2          N  0.52545943  0.26457068  0.47057114    -0.78700
C3          C  0.56768402  0.26138222  0.47087581     0.82100
N4          N  0.58795551  0.26192124  0.50878713    -0.78600
C5          C  0.56965611  0.26094280  0.04433078     0.82200
N6          N  0.52767727  0.26762722  0.04482804    -0.80400
O7          O  0.66264001  0.31040110  0.29192324    -0.82400
C8          C  0.83463393  0.33366341  0.25739228     0.97000
O9          O  0.81930228  0.31493083  0.28917601    -0.71500
O10         O  0.76702472  0.36302616  0.32973594    -0.75100
Al11       Al  0.76268150  0.30825986  0.30854672     1.49000
C12         C  0.73706063  0.38772022  0.33499725     0.92200
O13         O  0.71427400  0.39821183  0.23134943    -0.81300
O14         O  0.71569823  0.28220430  0.19083865    -0.74900
Al15       Al  0.69123126  0.35256361  0.26161348     1.90100
O16         O  0.74681176  0.36112621  0.18250553    -0.74000
O17         O  0.78488408  0.25981481  0.22750072    -0.73800
O18         O  0.81253049  0.34062437  0.22509563    -0.79500
O19         O  0.76092564  0.25163387  0.29242654    -0.77700
O20         O  0.73888024  0.32430893  0.26028462    -1.13800
O21         O  0.71157411  0.29853936  0.33885978    -0.73000
C22         C  0.67367578  0.29691852  0.32773857     0.97700
C23         C  0.73238443  0.39533771  0.19562923     0.94100
Al24       Al  0.76295855  0.31194562  0.21062336     1.55600
O25         O  0.70389790  0.38331723  0.31340441    -0.77600
C26         C  0.77745459  0.23680743  0.25902579     0.98300
C27         C  0.67981558  0.29741074  0.18680054     0.93200
O28         O  0.66853418  0.32783113  0.21008549    -0.82900
C29         C  0.75584159  0.56488277  0.01449663     0.79600
N30         N  0.77129520  0.54020383  0.47641068    -0.78700
C31         C  0.76005368  0.49942028  0.47809366     0.82100
N32         N  0.74049771  0.48192162  0.01998727    -0.78600
C33         C  0.74321723  0.50546568  0.05605376     0.82200
N34         N  0.75132815  0.54674985  0.05333849    -0.80400
C35         C  0.82461002  0.06416572  0.26145722     0.79600
N36         N  0.82918200  0.04400989  0.29904138    -0.78700
C37         C  0.84353889  0.00448192  0.29925779     0.82100
N38         N  0.85321091  0.98503250  0.26195358    -0.78600
C39         C  0.84895004  0.00501897  0.22432459     0.82200
N40         N  0.83436478  0.04446282  0.22417189    -0.80400
O41         O  0.87668019  0.89812683  0.04560151    -0.82400
C42         C  0.80560504  0.73851108  0.01416342     0.97000
O43         O  0.79911898  0.76190855  0.04597484    -0.71500
O44         O  0.86762405  0.78365032  0.08597961    -0.75100
Al45       Al  0.82192149  0.81390057  0.06396500     1.49000
C46         C  0.90467540  0.79692599  0.08969586     0.92200
O47         O  0.92431664  0.81643156  0.48416650    -0.81300
O48         O  0.82231956  0.86862456  0.44443214    -0.74900
Al49       Al  0.89799340  0.85133702  0.01570443     1.90100
O50         O  0.87599438  0.80309564  0.43642928    -0.74000
O51         O  0.76749973  0.82063563  0.48205400    -0.73800
O52         O  0.82407804  0.75637096  0.47877942    -0.79500
O53         O  0.77263243  0.84251086  0.04801418    -0.77700
O54         O  0.84851276  0.82495543  0.01511621    -1.13800
O55         O  0.83913965  0.86341162  0.09253265    -0.73000
C56         C  0.85752655  0.89620344  0.08077851     0.97700
C57         C  0.91339832  0.80090839  0.44875874     0.94100
Al58       Al  0.82435973  0.81353324  0.46477098     1.55600
O59         O  0.91730702  0.82695064  0.06729747    -0.77600
C60         C  0.75230211  0.83596666  0.01412992     0.98300
C61         C  0.85288320  0.89343307  0.44138686     0.93200
O62         O  0.88450617  0.88909103  0.46480501    -0.82900
C63         C  0.07364374  0.75204566  0.26544722     0.79600
N64         N  0.04921483  0.75186065  0.23007890    -0.78700
C65         C  0.00691276  0.74886663  0.23303857     0.82100
N66         N  0.98912315  0.74692113  0.27243574    -0.78600
C67         C  0.01294474  0.74674251  0.30827342     0.82200
N68         N  0.05513072  0.75003381  0.30457910    -0.80400
C69         C  0.27645261  0.08060063  0.23660798     0.79600
N70         N  0.26515690  0.10055688  0.20034916    -0.78700
C71         C  0.25286361  0.14087488  0.20227371     0.82100
N72         N  0.25079063  0.16056091  0.24074574    -0.78600
C73         C  0.26195810  0.14089465  0.27694042     0.82200
N74         N  0.27467358  0.10083466  0.27491881    -0.80400
O75         O  0.16147850  0.32368778  0.45244147    -0.82400
C76         C  0.33000854  0.31509232  0.01050200     0.97000
O77         O  0.31656531  0.32296285  0.47065931    -0.71500
O78         O  0.26879349  0.26978831  0.43079585    -0.75100
Al79       Al  0.26293524  0.32645409  0.44546108     1.49000
C80         C  0.23851698  0.24528072  0.42429057     0.92200
O81         O  0.20960523  0.24725715  0.02940855    -0.81300
O82         O  0.20292479  0.36612555  0.05894271    -0.74900
Al83       Al  0.18853770  0.28877983  0.99290158     1.90100
O84         O  0.23426651  0.28989331  0.07868491    -0.74000
O85         O  0.27543581  0.38914277  0.02794474    -0.73800
O86         O  0.30515160  0.30977448  0.04139008    -0.79500
O87         O  0.26029636  0.38461213  0.45423444    -0.77700
O88         O  0.23485351  0.31955361  0.99699631    -1.13800
O89         O  0.21563561  0.33202333  0.41000775    -0.73000
C90         C  0.17699730  0.33510412  0.41724891     0.97700
C91         C  0.22275543  0.25401529  0.06672618     0.94100
Al92       Al  0.25291509  0.33731671  0.04767504     1.55600
O93         O  0.20418281  0.25064257  0.44346905    -0.77600
C94         C  0.27022035  0.40866542  0.99356545     0.98300
C95         C  0.16687112  0.34992464  0.05965716     0.93200
O96         O  0.15965923  0.31658240  0.03898894    -0.82900
C97         C  0.00747897  0.38457671  0.24632773     0.79600
N98         N  0.03323626  0.38117726  0.28050159    -0.78700
C99         C  0.07519112  0.38509390  0.27555369     0.82100
N100        N  0.09115412  0.39238055  0.23616385    -0.78600
C101        C  0.06595783  0.39551425  0.20169315     0.82200
N102        N  0.02407558  0.39065754  0.20680150    -0.80400
C103        C  0.32508570  0.57969154  0.98687715     0.79600
N104        N  0.33107875  0.59897323  0.02517611    -0.78700
C105        C  0.34474530  0.63884202  0.02719798     0.82100
N106        N  0.35192775  0.66012862  0.99065828    -0.78600
C107        C  0.34014936  0.64011355  0.45491648     0.82200
N108        N  0.32664529  0.60005443  0.45150197    -0.80400
O109        O  0.36518285  0.74119202  0.20837075    -0.82400
C110        C  0.30595203  0.90422712  0.24078269     0.97000
O111        O  0.29383294  0.87978420  0.21152371    -0.71500
O112        O  0.35909403  0.85452115  0.16759407    -0.75100
Al113      Al  0.31361119  0.82653970  0.19364898     1.49000
C114        C  0.39546216  0.84019783  0.16301024     0.92200
O115        O  0.42170939  0.82805346  0.26848215    -0.81300
O116        O  0.31849173  0.78033283  0.31350345    -0.74900
Al117      Al  0.38962612  0.78694573  0.23867640     1.90100
O118        O  0.37523059  0.84391936  0.31719937    -0.74000
O119        O  0.26434476  0.82846751  0.27700014    -0.73800
O120        O  0.32459611  0.89043576  0.27307275    -0.79500
O121        O  0.26543728  0.79851267  0.21423472    -0.77700
O122        O  0.34224691  0.81592032  0.24101391    -1.13800
O123        O  0.32671815  0.77695750  0.16464425    -0.73000
C124        C  0.34415299  0.74366655  0.17457232     0.97700
C125        C  0.41253732  0.84394361  0.30423558     0.94100
Al126      Al  0.32241996  0.83436460  0.29092470     1.55600
O127        O  0.40905146  0.81183184  0.18686062    -0.77600
C128        C  0.24647290  0.80658201  0.24868381     0.98300
C129        C  0.34728422  0.75387902  0.31457267     0.93200
O130        O  0.37882465  0.75657378  0.29014245    -0.82900
C131        C  0.57565311  0.86409119  0.99414115     0.79600
N132        N  0.54922832  0.86653119  0.02811609    -0.78700
C133        C  0.50765770  0.87209265  0.02252921     0.82100
N134        N  0.49256851  0.87460716  0.98213380    -0.78600
C135        C  0.51798386  0.87624375  0.44692229     0.82200
N136        N  0.55950968  0.87081875  0.45415759    -0.80400
C137        C  0.48077992  0.83394336  0.33981115    -0.20900
C138        C  0.44573424  0.85916811  0.33347062    -0.07500
C139        C  0.44009920  0.89468280  0.35986309     0.13400
C140        C  0.46723844  0.90173971  0.39433220    -0.21000
C141        C  0.49964032  0.87406139  0.40348530    -0.07500
C142        C  0.50765042  0.84068760  0.37479173     0.13400
C143        C  0.54223226  0.81021075  0.38266806    -0.24300
H144        H  0.48519190  0.80683481  0.31940170     0.14700
H145        H  0.46155616  0.92772860  0.41592151     0.14700
C146        C  0.40529227  0.92502715  0.35221158    -0.24300
H147        H  0.54315410  0.78534256  0.35774525     0.04900
H148        H  0.53753027  0.79510133  0.41411873     0.08100
H149        H  0.57286802  0.82670074  0.38226804     0.08100
H150        H  0.37440723  0.91007810  0.35777019     0.08100
H151        H  0.40720561  0.93636749  0.31887078     0.08100
H152        H  0.40745661  0.95247372  0.37400720     0.04900
C153        C  0.46134659  0.87081346  0.13552098    -0.20900
C154        C  0.42164164  0.85413122  0.12714782    -0.07500
C155        C  0.40918870  0.84655110  0.08455837     0.13400
C156        C  0.43741329  0.85458963  0.05127536    -0.21000
C157        C  0.47813145  0.86955158  0.05935111    -0.07500
C158        C  0.48971774  0.87913668  0.10218486     0.13400
C159        C  0.53135046  0.89864316  0.11337245    -0.24300
H160        H  0.47042059  0.87659898  0.16843309     0.14700
H161        H  0.42805407  0.84719159  0.01879869     0.14700
C162        C  0.36710101  0.82753452  0.07416105    -0.24300
H163        H  0.53297250  0.90755019  0.14774926     0.04900
H164        H  0.53635875  0.92728163  0.09438861     0.08100
H165        H  0.55699254  0.87640266  0.10717213     0.08100
H166        H  0.34180397  0.84824656  0.08577543     0.08100
H167        H  0.36401709  0.79668786  0.08956803     0.08100
H168        H  0.36288450  0.82285748  0.03919984     0.04900
C169        C  0.30910530  0.66957244  0.38969994    -0.20900
C170        C  0.34389614  0.66619545  0.41660409    -0.07500
C171        C  0.38059023  0.68934709  0.40767121     0.13400
C172        C  0.38127202  0.71607129  0.37259405    -0.21000
C173        C  0.34575239  0.72129026  0.34721901    -0.07500
C174        C  0.30929673  0.69746665  0.35543381     0.13400
C175        C  0.27084106  0.70105497  0.32802595    -0.24300
H176        H  0.28110203  0.65156529  0.39660593     0.14700
H177        H  0.40911316  0.73450726  0.36610941     0.14700
C178        C  0.41905817  0.68611966  0.43498803    -0.24300
H179        H  0.24607108  0.67856547  0.33770046     0.04900
H180        H  0.27901114  0.69467018  0.29405250     0.08100
H181        H  0.25762701  0.73274879  0.33102012     0.08100
H182        H  0.42877397  0.65311113  0.43702779     0.08100
H183        H  0.41242154  0.69861772  0.46743637     0.08100
H184        H  0.44566711  0.70437275  0.42170236     0.04900
C185        C  0.30674789  0.67335406  0.08553201    -0.20900
C186        C  0.34511808  0.66062644  0.06847397    -0.07500
C187        C  0.38252234  0.66980368  0.09030072     0.13400
C188        C  0.38089283  0.69373340  0.12803535    -0.21000
C189        C  0.34274877  0.70931124  0.14335678    -0.07500
C190        C  0.30506552  0.69812525  0.12253654     0.13400
C191        C  0.26313428  0.71266997  0.13880792    -0.24300
H192        H  0.27814260  0.66538390  0.06872036     0.14700
H193        H  0.40971026  0.70277354  0.14387325     0.14700
C194        C  0.42398055  0.65515392  0.07320254    -0.24300
H195        H  0.23697046  0.69855893  0.12027139     0.04900
H196        H  0.26062852  0.74691939  0.13596249     0.08100
H197        H  0.25912335  0.70373311  0.17278796     0.08100
H198        H  0.42966651  0.66838786  0.04102790     0.08100
H199        H  0.42381117  0.62064981  0.07076188     0.08100
H200        H  0.45019819  0.66490424  0.09432767     0.04900
C201        C  0.30691532  0.46326291  0.45295829    -0.20900
C202        C  0.28143792  0.45301877  0.99135511    -0.07500
C203        C  0.27236787  0.48124487  0.02488934     0.13400
C204        C  0.28607052  0.52251582  0.02158595    -0.21000
C205        C  0.30908392  0.53632632  0.98592568    -0.07500
C206        C  0.31984484  0.50510334  0.45160321     0.13400
C207        C  0.34972752  0.51835402  0.41679111    -0.24300
H208        H  0.31835126  0.44140922  0.42906837     0.14700
H209        H  0.27888437  0.54411600  0.04738334     0.14700
C210        C  0.24735545  0.46849696  0.06366749    -0.24300
H211        H  0.35912841  0.49170046  0.39608814     0.04900
H212        H  0.37851171  0.53195835  0.43115599     0.08100
H213        H  0.33466892  0.54154660  0.39596151     0.08100
H214        H  0.26469092  0.44516053  0.08234551     0.08100
H215        H  0.21683563  0.45521504  0.05336082     0.08100
H216        H  0.24102306  0.49533504  0.08534751     0.04900
C217        C  0.07017488  0.36326508  0.12984031    -0.20900
C218        C  0.08507294  0.39354272  0.15873461    -0.07500
C219        C  0.12209579  0.41567012  0.14898044     0.13400
C220        C  0.14629253  0.40291529  0.11391084    -0.21000
C221        C  0.13455532  0.36843221  0.08834660    -0.07500
C222        C  0.09431612  0.35039409  0.09459083     0.13400
C223        C  0.07675925  0.31680336  0.06560119    -0.24300
H224        H  0.04104841  0.34713519  0.13675723     0.14700
H225        H  0.17591950  0.41850203  0.10831496     0.14700
C226        C  0.13651757  0.45241306  0.17566703    -0.24300
H227        H  0.04385217  0.30891874  0.07391217     0.04900
H228        H  0.09505362  0.28783406  0.06846318     0.08100
H229        H  0.07723548  0.32759767  0.03198969     0.08100
H230        H  0.14533478  0.44247785  0.20820159     0.08100
H231        H  0.11111386  0.47567654  0.17791841     0.08100
H232        H  0.16432484  0.46794548  0.16134479     0.04900
C233        C  0.16157692  0.33719213  0.34067508    -0.20900
C234        C  0.15041132  0.34966921  0.38223203    -0.07500
C235        C  0.11571406  0.37589036  0.38854196     0.13400
C236        C  0.09227701  0.38794918  0.35290820    -0.21000
C237        C  0.10315339  0.37484353  0.31130931    -0.07500
C238        C  0.13852841  0.34917813  0.30515716     0.13400
C239        C  0.15149616  0.33251599  0.26176260    -0.24300
H240        H  0.18833018  0.31711997  0.33597783     0.14700
H241        H  0.06525648  0.40765343  0.35750645     0.14700
C242        C  0.10410646  0.39216508  0.43232330    -0.24300
H243        H  0.16180708  0.35845521  0.24095817     0.04900
H244        H  0.12502099  0.31534263  0.24670445     0.08100
H245        H  0.17808902  0.31063500  0.26391336     0.08100
H246        H  0.13121857  0.40894117  0.44667312     0.08100
H247        H  0.09467702  0.36600996  0.45322389     0.08100
H248        H  0.07752570  0.41411609  0.43098977     0.04900
C249        C  0.20822201  0.19242034  0.16718372    -0.20900
C250        C  0.24120333  0.16396710  0.16353798    -0.07500
C251        C  0.26482676  0.16211610  0.12514337     0.13400
C252        C  0.25602284  0.19018302  0.09232510    -0.21000
C253        C  0.22490075  0.22018395  0.09750636    -0.07500
C254        C  0.20003119  0.22081232  0.13475563     0.13400
C255        C  0.16529240  0.25185524  0.14052570    -0.24300
H256        H  0.18975110  0.19351783  0.19632418     0.14700
H257        H  0.27510277  0.19040706  0.06357766     0.14700
C258        C  0.30104101  0.13284833  0.11958586    -0.24300
H259        H  0.14836302  0.24746823  0.17125974     0.04900
H260        H  0.14246823  0.24805340  0.11412752     0.08100
H261        H  0.17811171  0.28406653  0.14030799     0.08100
H262        H  0.28969932  0.10013772  0.12064272     0.08100
H263        H  0.32428612  0.13842187  0.14533537     0.08100
H264        H  0.31717779  0.13728586  0.08841734     0.04900
C265        C  0.21587930  0.17548162  0.32864547    -0.20900
C266        C  0.25619500  0.16219959  0.31819471    -0.07500
C267        C  0.29003149  0.17292291  0.34494712     0.13400
C268        C  0.28278858  0.19788735  0.38118225    -0.21000
C269        C  0.24258788  0.21260782  0.39099533    -0.07500
C270        C  0.20844169  0.20052381  0.36469264     0.13400
C271        C  0.16447404  0.21554824  0.37256409    -0.24300
H272        H  0.19020359  0.16717712  0.30758251     0.14700
H273        H  0.30896393  0.20725641  0.40110223     0.14700
C274        C  0.33397728  0.16000681  0.33425465    -0.24300
H275        H  0.14241900  0.20394065  0.34773388     0.04900
H276        H  0.16376578  0.25004545  0.37205916     0.08100
H277        H  0.15295139  0.20420075  0.40390910     0.08100
H278        H  0.34270645  0.17091687  0.30182021     0.08100
H279        H  0.33608830  0.12573135  0.33543207     0.08100
H280        H  0.35696219  0.17314089  0.35737461     0.04900
C281        C  0.25777627  0.00886018  0.21506079    -0.20900
C282        C  0.28626148  0.03598466  0.23510784    -0.07500
C283        C  0.32209481  0.01982385  0.25492706     0.13400
C284        C  0.32776132  0.97672651  0.25562035    -0.21000
C285        C  0.29853681  0.94932504  0.23706778    -0.07500
C286        C  0.26326124  0.96563206  0.21587581     0.13400
C287        C  0.23038802  0.93799704  0.19553007    -0.24300
H288        H  0.23035069  0.02155755  0.19986370     0.14700
H289        H  0.35521017  0.96431899  0.27091601     0.14700
C290        C  0.35469804  0.04774358  0.27498772    -0.24300
H291        H  0.20386093  0.95625191  0.18300419     0.04900
H292        H  0.21766716  0.91592628  0.21949789     0.08100
H293        H  0.24404535  0.92048959  0.16815114     0.08100
H294        H  0.34124797  0.06326969  0.30350637     0.08100
H295        H  0.36553705  0.07133526  0.25162719     0.08100
H296        H  0.38234195  0.02998584  0.28565354     0.04900
C297        C  0.18436908  0.76729496  0.22206654    -0.20900
C298        C  0.20299126  0.79069840  0.25526167    -0.07500
C299        C  0.17976536  0.79757280  0.29347757     0.13400
C300        C  0.13835890  0.78303849  0.29608001    -0.21000
C301        C  0.11909432  0.76168897  0.26191710    -0.07500
C302        C  0.14306343  0.75253675  0.22484831     0.13400
C303        C  0.12607948  0.72659383  0.18825409    -0.24300
H304        H  0.20202728  0.76084807  0.19317248     0.14700
H305        H  0.12044138  0.78973754  0.32478595     0.16700
C306        C  0.19756128  0.82040271  0.33180778    -0.24300
H307        H  0.15074982  0.71897653  0.16437989     0.04900
H308        H  0.10148786  0.74379744  0.17115280     0.08100
H309        H  0.11322150  0.69677106  0.20048525     0.08100
H310        H  0.20563814  0.85293371  0.32320853     0.08100
H311        H  0.22569281  0.80412432  0.34350064     0.08100
H312        H  0.17491712  0.82188242  0.35880170     0.04900
C313        C  0.67725697  0.83030316  0.54080965    -0.20900
C314        C  0.70762996  0.84637741  0.01195222    -0.07500
C315        C  0.69294552  0.87779532  0.98484130     0.13400
C316        C  0.64970951  0.88299362  0.97972258    -0.21000
C317        C  0.62084489  0.85750464  0.00123142    -0.07500
C318        C  0.63402238  0.83678919  0.53656570     0.13400
C319        C  0.60465742  0.81423942  0.56642908    -0.24300
H320        H  0.68867621  0.80980567  0.56538353     0.14700
H321        H  0.63835104  0.90711826  0.95887582     0.14700
C322        C  0.72294958  0.90595382  0.96160592    -0.24300
H323        H  0.62165734  0.79315506  0.58811209     0.04900
H324        H  0.58205825  0.79505880  0.54771903     0.08100
H325        H  0.58676439  0.81340125  0.07473272     0.08100
H326        H  0.73747051  0.87370711  0.43039400     0.08100
H327        H  0.74339745  0.92231350  0.98510045     0.08100
H328        H  0.70639789  0.92976659  0.94272766     0.04900
C329        C  0.91412540  0.75732425  0.15671603    -0.20900
C330        C  0.93252319  0.77916745  0.12270638    -0.07500
C331        C  0.97644069  0.78552377  0.12268222     0.13400
C332        C  0.99973956  0.77331764  0.15822626    -0.21000
C333        C  0.98079548  0.75483640  0.19411405    -0.07500
C334        C  0.93745680  0.74507230  0.19230075     0.13400
C335        C  0.91501868  0.72200833  0.22740522    -0.24300
H336        H  0.88073384  0.75131103  0.15646332     0.14700
H337        H  0.03295782  0.78007249  0.15848545     0.14700
C338        C  0.99945250  0.80499486  0.08557390    -0.24300
H339        H  0.88249187  0.71351885  0.21829793     0.04900
H340        H  0.91294715  0.74197438  0.25644273     0.08100
H341        H  0.93167620  0.69271441  0.23446347     0.08100
H342        H  0.99105491  0.83827095  0.08273594     0.08100
H343        H  0.99170927  0.78792649  0.05554189     0.08100
H344        H  0.03389691  0.80382365  0.08969502     0.04900
C345        C  0.00836240  0.78283223  0.37834287    -0.20900
C346        C  0.99259505  0.75193657  0.35048664    -0.07500
C347        C  0.95446107  0.73178209  0.36071940     0.13400
C348        C  0.93029029  0.74715253  0.39467053    -0.21000
C349        C  0.94408625  0.78089826  0.41992122    -0.07500
C350        C  0.98473700  0.79735380  0.41329104     0.13400
C351        C  0.00255674  0.83163028  0.44120731    -0.24300
H352        H  0.03808898  0.79769308  0.37113987     0.14700
H353        H  0.89988796  0.73318530  0.40090246     0.14700
C354        C  0.93853086  0.69387330  0.33693249    -0.24300
H355        H  0.03423399  0.84145511  0.43041970     0.04900
H356        H  0.00521560  0.82056136  0.47456952     0.08100
H357        H  0.98214188  0.85929030  0.44060511     0.08100
H358        H  0.96076599  0.68255848  0.31224590     0.08100
H359        H  0.90819441  0.70087124  0.32163973     0.08100
H360        H  0.93358843  0.66811873  0.35987299     0.04900
C361        C  0.82359189  0.98352166  0.15305294    -0.20900
C362        C  0.85543975  0.98237539  0.18380581    -0.07500
C363        C  0.89085641  0.95719237  0.17662273     0.13400
C364        C  0.89243729  0.93211318  0.13980708    -0.21000
C365        C  0.85911052  0.93098189  0.11098504    -0.07500
C366        C  0.82465217  0.95731138  0.11700052     0.13400
C367        C  0.78844370  0.95636957  0.08633725    -0.24300
H368        H  0.79653544  0.00296054  0.15864482     0.14700
H369        H  0.91853156  0.91123384  0.13487151     0.14700
C370        C  0.92675981  0.95622298  0.20768512    -0.24300
H371        H  0.76404532  0.97916288  0.09564384     0.04900
H372        H  0.77384774  0.92488919  0.08575352     0.08100
H373        H  0.79970555  0.96403464  0.05369568     0.08100
H374        H  0.91639173  0.94279712  0.23852753     0.08100
H375        H  0.93904450  0.98825662  0.21313459     0.08100
H376        H  0.95282537  0.93677431  0.19541569     0.04900
C377        C  0.88494405  0.97029795  0.35474088    -0.20900
C378        C  0.84570152  0.98129250  0.33915750    -0.07500
C379        C  0.80920535  0.96588427  0.35880832     0.13400
C380        C  0.81282198  0.93899882  0.39339490    -0.21000
C381        C  0.85195838  0.92657277  0.40864564    -0.07500
C382        C  0.88867865  0.94307378  0.38930311     0.13400
C383        C  0.93185451  0.93032826  0.40264538    -0.24300
H384        H  0.91274983  0.98194587  0.33875466     0.14700
H385        H  0.78485871  0.92660942  0.40754431     0.14700
C386        C  0.76639908  0.97597900  0.34205870    -0.24300
H387        H  0.95656564  0.94533279  0.38290399     0.04900
H388        H  0.93494695  0.89614863  0.39861558     0.08100
H389        H  0.93749522  0.93959941  0.43643257     0.08100
H390        H  0.76389580  0.96624797  0.30797926     0.08100
H391        H  0.76105744  0.00987304  0.34494943     0.08100
H392        H  0.74125116  0.95984763  0.36023010     0.04900
C393        C  0.80462144  0.66812983  0.98119483    -0.20900
C394        C  0.79202783  0.69425568  0.01509027    -0.07500
C395        C  0.76655206  0.67751455  0.04815022     0.13400
C396        C  0.75458595  0.63555383  0.04600262    -0.21000
C397        C  0.76736615  0.60949800  0.01223776    -0.07500
C398        C  0.79287415  0.62608553  0.97928980     0.13400
C399        C  0.80931656  0.59986654  0.94269584    -0.24300
H400        H  0.82427047  0.68053895  0.95596347     0.14700
H401        H  0.73506423  0.62287668  0.07121009     0.14700
C402        C  0.75142799  0.70298071  0.08593306    -0.24300
H403        H  0.83082747  0.61777962  0.92166917     0.04900
H404        H  0.81890929  0.58454061  0.42822222     0.08100
H405        H  0.82699834  0.57307462  0.95527095     0.08100
H406        H  0.72867206  0.72623670  0.55657184     0.08100
H407        H  0.77850261  0.71451880  0.10488282     0.08100
H408        H  0.73135703  0.68444637  0.10783600     0.04900
C409        C  0.95187426  0.33982936  0.27622459    -0.20900
C410        C  0.96277153  0.37418957  0.25104824    -0.07500
C411        C  0.93124336  0.39620762  0.22968168     0.13400
C412        C  0.88966973  0.38259143  0.23324191    -0.21000
C413        C  0.87880182  0.34748525  0.25745426    -0.07500
C414        C  0.91037704  0.32593109  0.27953665     0.13400
C415        C  0.90121410  0.28730993  0.30510160    -0.24300
H416        H  0.97624954  0.32283639  0.29230561     0.14700
H417        H  0.86543990  0.39942775  0.21676339     0.14700
C418        C  0.94095766  0.43452846  0.20391199    -0.24300
H419        H  0.93018597  0.27333899  0.31786537     0.04900
H420        H  0.88559166  0.26350701  0.28456187     0.08100
H421        H  0.88089405  0.29508041  0.33284763     0.08100
H422        H  0.96036459  0.42629945  0.17565063     0.08100
H423        H  0.95784658  0.45774436  0.22410648     0.08100
H424        H  0.91207723  0.44933455  0.19195128     0.04900
C425        C  0.76851723  0.16530706  0.28582111    -0.20900
C426        C  0.78876192  0.19236148  0.25732858    -0.07500
C427        C  0.81989035  0.17651666  0.22926063     0.13400
C428        C  0.83035082  0.13441997  0.23140759    -0.21000
C429        C  0.81087879  0.10776200  0.26071716    -0.07500
C430        C  0.77904977  0.12323342  0.28786813     0.13400
C431        C  0.75510688  0.09564950  0.31816220    -0.24300
H432        H  0.74419226  0.17715989  0.30678360     0.14700
H433        H  0.85462840  0.12234462  0.21052013     0.14700
C434        C  0.84323220  0.20343964  0.19770348    -0.24300
H435        H  0.72923223  0.11253080  0.33435361     0.04900
H436        H  0.77618214  0.08432280  0.34348707     0.08100
H437        H  0.74118826  0.06897785  0.30022207     0.08100
H438        H  0.86759104  0.18575137  0.18000031     0.08100
H439        H  0.85910467  0.22958432  0.21473479     0.08100
H440        H  0.82125300  0.21569062  0.17362230     0.04900
C441        C  0.77478773  0.43603412  0.14559895    -0.20900
C442        C  0.73665919  0.43129640  0.16734101    -0.07500
C443        C  0.70229559  0.45631499  0.15637342     0.13400
C444        C  0.70603579  0.48298630  0.12123261    -0.21000
C445        C  0.74326528  0.48493774  0.09750736    -0.07500
C446        C  0.77861419  0.46272475  0.11089641     0.13400
C447        C  0.82039555  0.46539680  0.08848085    -0.24300
H448        H  0.80134282  0.41727576  0.15455844     0.14700
H449        H  0.67921148  0.50051980  0.11076033     0.14700
C450        C  0.66105799  0.45288801  0.17958469    -0.24300
H451        H  0.84464623  0.47565856  0.11170494     0.04900
H452        H  0.82076597  0.48775709  0.06172393     0.08100
H453        H  0.82889482  0.43426018  0.07558873     0.08100
H454        H  0.66529865  0.46143969  0.21378811     0.08100
H455        H  0.64877492  0.42051991  0.17708871     0.08100
H456        H  0.63734933  0.47401987  0.16603204     0.04900
C457        C  0.78129179  0.43555879  0.37826747    -0.20900
C458        C  0.74096864  0.42063348  0.36833283    -0.07500
C459        C  0.70657306  0.43392543  0.39358742     0.13400
C460        C  0.71369275  0.46090447  0.42847028    -0.21000
C461        C  0.75407413  0.47483385  0.43867722    -0.07500
C462        C  0.78826557  0.46227480  0.41327622     0.13400
C463        C  0.83229475  0.47533994  0.42431818    -0.24300
H464        H  0.80774886  0.42527771  0.35924067     0.14700
H465        H  0.68774019  0.47042907  0.44861767     0.14700
C466        C  0.66271148  0.41820250  0.38567315    -0.24300
H467        H  0.85550475  0.46161301  0.40185460     0.04900
H468        H  0.83997117  0.46498489  0.45711135     0.08100
H469        H  0.83532699  0.50966755  0.42275918     0.08100
H470        H  0.66182503  0.38371246  0.38765273     0.08100
H471        H  0.65204807  0.42810263  0.35365563     0.08100
H472        H  0.64022280  0.43066570  0.40963978     0.04900
C473        C  0.63940167  0.25992717  0.07910604    -0.20900
C474        C  0.59586511  0.26461480  0.08392978    -0.07500
C475        C  0.58005568  0.27505406  0.12523325     0.13400
C476        C  0.60825812  0.28370730  0.15872383    -0.21000
C477        C  0.65169289  0.28158018  0.15260614    -0.07500
C478        C  0.66736811  0.26823255  0.11243426     0.13400
C479        C  0.71362213  0.26480277  0.10317212    -0.24300
H480        H  0.65231830  0.25111198  0.04840924     0.14700
H481        H  0.59632405  0.29319773  0.18979001     0.14700
C482        C  0.53393367  0.27781930  0.13482822    -0.24300
H483        H  0.71996487  0.25550529  0.06946905     0.04900
H484        H  0.72762850  0.24077866  0.12380686     0.08100
H485        H  0.72927378  0.29533608  0.10883498     0.08100
H486        H  0.51988965  0.30355319  0.11655113     0.08100
H487        H  0.51828951  0.24781200  0.12663303     0.08100
H488        H  0.52782040  0.28426429  0.16924812     0.04900
C489        C  0.57776350  0.29110723  0.39897719    -0.20900
C490        C  0.59173499  0.26382190  0.43050078    -0.07500
C491        C  0.62972299  0.24237645  0.42409146     0.13400
C492        C  0.65447398  0.25170625  0.38830288    -0.21000
C493        C  0.64220531  0.28174444  0.35872396    -0.07500
C494        C  0.60251738  0.30054548  0.36322508     0.13400
C495        C  0.58690820  0.33246161  0.33219913    -0.24300
H496        H  0.54836718  0.30709705  0.40358754     0.14700
H497        H  0.68444504  0.23662598  0.38427555     0.14700
C498        C  0.64444002  0.20960674  0.45458029    -0.24300
H499        H  0.55576702  0.34460710  0.34163082     0.04900
H500        H  0.58378293  0.31819610  0.29987790     0.08100
H501        H  0.60890134  0.35932171  0.33093997     0.08100
H502        H  0.61940605  0.18591544  0.45932308     0.08100
H503        H  0.67257140  0.19334563  0.44218780     0.08100
H504        H  0.65303881  0.22399985  0.48568411     0.04900
C505        C  0.43896193  0.29120112  0.54408954    -0.20900
C506        C  0.46034855  0.27950024  0.00810070    -0.07500
C507        C  0.44125162  0.29978001  0.97322011     0.13400
C508        C  0.39927021  0.31083142  0.97600387    -0.21000
C509        C  0.37474202  0.30255701  0.01230765    -0.07500
C510        C  0.39658974  0.30159005  0.54540266     0.13400
C511        C  0.37910453  0.32217578  0.58510453    -0.24300
H512        H  0.45792150  0.29842738  0.57174050     0.14700
H513        H  0.38551197  0.32625180  0.94890038     0.14700
C514        C  0.46439547  0.31136777  0.93289028    -0.24300
H515        H  0.40348585  0.32734241  0.60982605     0.04900
H516        H  0.35437385  0.30213450  0.59931627     0.08100
H517        H  0.35742969  0.30097114  0.10257048     0.08100
H518        H  0.46361084  0.21312420  0.44011599     0.08100
H519        H  0.49205337  0.33095085  0.94101890     0.08100
H520        H  0.44487069  0.32963655  0.91072139     0.04900
C521        C  0.50335054  0.26654397  0.50766514     0.79600
N522        N  0.52582042  0.26185164  0.97009196    -0.78700
C523        C  0.56758103  0.25537638  0.96875728     0.82100
N524        N  0.58908697  0.25541448  0.00594321    -0.78600
C525        C  0.56653245  0.26443631  0.54624813     0.82200
N526        N  0.52424864  0.26658965  0.54542483    -0.80400
O527        O  0.66010264  0.31474801  0.79174745    -0.82400
C528        C  0.83242019  0.33147289  0.75572044     0.97000
O529        O  0.81659960  0.31541473  0.78877085    -0.71500
O530        O  0.76558294  0.36422604  0.82939679    -0.75100
Al531      Al  0.76033931  0.30936218  0.80853893     1.49000
C532        C  0.73622205  0.38956145  0.83469303     0.92200
O533        O  0.71670691  0.40002801  0.72999794    -0.81300
O534        O  0.71027587  0.28210852  0.69298827    -0.74900
Al535      Al  0.69059844  0.35572566  0.76098722     1.90100
O536        O  0.74479766  0.35928676  0.68123329    -0.74000
O537        O  0.77979787  0.25784335  0.72803813    -0.73800
O538        O  0.81048869  0.33688389  0.72291675    -0.79500
O539        O  0.75822324  0.25234196  0.79394341    -0.77700
O540        O  0.73681609  0.32510948  0.76012393    -1.13800
O541        O  0.70897373  0.30019894  0.83813470    -0.73000
C542        C  0.67115872  0.29886905  0.82662668     0.97700
C543        C  0.73429896  0.39505008  0.69406642     0.94100
Al544      Al  0.75935623  0.31020782  0.71042812     1.55600
O545        O  0.70349908  0.38600264  0.81254299    -0.77600
C546        C  0.77394019  0.23625435  0.76083453     0.98300
C547        C  0.67562200  0.29964221  0.68817742     0.93200
O548        O  0.66703173  0.33202449  0.70976170    -0.82900
C549        C  0.77659626  0.56263637  0.51311923     0.79600
N550        N  0.75197169  0.54123304  0.97847916    -0.78700
C551        C  0.74460198  0.49977457  0.98114205     0.82100
N552        N  0.75429699  0.48101375  0.51649144    -0.78600
C553        C  0.75952167  0.50321255  0.55321688     0.82200
N554        N  0.77047967  0.54397277  0.55150723    -0.80400
C555        C  0.82431146  0.06421497  0.76815353     0.79600
N556        N  0.82974430  0.04267984  0.80500633    -0.78700
C557        C  0.84322490  0.00259284  0.80330496     0.82100
N558        N  0.85129809  0.98443340  0.76481892    -0.78600
C559        C  0.84574428  0.00566333  0.72816688     0.82200
N560        N  0.83199491  0.04529965  0.72993426    -0.80400
O561        O  0.87194126  0.90282547  0.54713230    -0.82400
C562        C  0.80922409  0.74013775  0.51207570     0.97000
O563        O  0.80183919  0.76232080  0.54459875    -0.71500
O564        O  0.86911531  0.78740646  0.58418594    -0.75100
Al565      Al  0.82152104  0.81535082  0.56342742     1.49000
C566        C  0.90536023  0.80265458  0.58813281     0.92200
O567        O  0.92558012  0.80773168  0.98614406    -0.81300
O568        O  0.82603655  0.86396176  0.94471080    -0.74900
Al569      Al  0.89501787  0.85793898  0.51537843     1.90100
O570        O  0.87744466  0.79657327  0.93771339    -0.74000
O571        O  0.76910829  0.81856054  0.98217569    -0.73800
O572        O  0.82312753  0.75274236  0.98116278    -0.79500
O573        O  0.77045394  0.84142728  0.54894742    -0.77700
O574        O  0.84683984  0.82911052  0.51453647    -1.13800
O575        O  0.83604534  0.86523700  0.59303027    -0.73000
C576        C  0.85285708  0.89917603  0.58224276     0.97700
C577        C  0.91473946  0.79340309  0.95022986     0.94100
Al578      Al  0.82587248  0.80928006  0.96563083     1.55600
O579        O  0.91633886  0.83340936  0.56596911    -0.77600
C580        C  0.75036910  0.83650044  0.51467972     0.98300
C581        C  0.85775052  0.88715443  0.94120806     0.93200
O582        O  0.88968633  0.88161238  0.96392323    -0.82900
C583        C  0.07483975  0.75656348  0.76387248     0.79600
N584        N  0.05085211  0.75740084  0.72823818    -0.78700
C585        C  0.00852195  0.75443629  0.73106887     0.82100
N586        N  0.99059307  0.75104065  0.77033684    -0.78600
C587        C  0.01428574  0.74965374  0.80623537     0.82200
N588        N  0.05640838  0.75355245  0.80285966    -0.80400
C589        C  0.25913264  0.07976337  0.74359855     0.79600
N590        N  0.24836353  0.09893823  0.70653511    -0.78700
C591        C  0.23874626  0.14014342  0.70667744     0.82100
N592        N  0.23997033  0.16165837  0.74415651    -0.78600
C593        C  0.25062894  0.14307841  0.78107458     0.82200
N594        N  0.25972591  0.10200441  0.78080913    -0.80400
O595        O  0.16228822  0.32663976  0.95546674    -0.82400
C596        C  0.32851610  0.30830954  0.50573301     0.97000
O597        O  0.31707414  0.33154292  0.97657185    -0.71500
O598        O  0.27222783  0.27645464  0.93575591    -0.75100
Al599      Al  0.26353363  0.33255513  0.95044101     1.49000
C600        C  0.24323787  0.25067237  0.92830236     0.92200
O601        O  0.20745584  0.24370978  0.52774417    -0.81300
O602        O  0.20312429  0.36374931  0.55393633    -0.74900
Al603      Al  0.18704397  0.28542965  0.49013242     1.90100
O604        O  0.23343868  0.28735653  0.57527014    -0.74000
O605        O  0.27571394  0.38496479  0.52237969    -0.73800
O606        O  0.30389402  0.30568789  0.53712808    -0.79500
O607        O  0.25782777  0.39005356  0.96030060    -0.77700
O608        O  0.23419705  0.31522645  0.49282985    -1.13800
O609        O  0.21652756  0.33610675  0.91369061    -0.73000
C610        C  0.17757298  0.33740748  0.92000842     0.97700
C611        C  0.22021002  0.25149504  0.56515585     0.94100
Al612      Al  0.25260614  0.33390330  0.54300797     1.55600
O613        O  0.20775148  0.25484923  0.94576022    -0.77600
C614        C  0.27130245  0.40388593  0.48758892     0.98300
C615        C  0.16711027  0.34762510  0.55577980     0.93200
O616        O  0.15941981  0.31406158  0.53592299    -0.82900
C617        C  0.00758960  0.37553464  0.74304874     0.79600
N618        N  0.03267894  0.37143624  0.77771555    -0.78700
C619        C  0.07481209  0.37476451  0.77378234     0.82100
N620        N  0.09160217  0.38258791  0.73489065    -0.78600
C621        C  0.06716498  0.38679394  0.70001542     0.82200
N622        N  0.02516235  0.38230560  0.70411744    -0.80400
C623        C  0.32065648  0.57680354  0.48708741     0.79600
N624        N  0.32682912  0.59446348  0.52630626    -0.78700
C625        C  0.34038542  0.63442674  0.52987060     0.82100
N626        N  0.34678889  0.65720026  0.49416132    -0.78600
C627        C  0.34592018  0.64119701  0.95214089     0.82200
N628        N  0.33181429  0.60128517  0.95037499    -0.80400
O629        O  0.36861399  0.74320732  0.70628897    -0.82400
C630        C  0.30361817  0.90478075  0.74114115     0.97000
O631        O  0.29363060  0.88051631  0.71075565    -0.71500
O632        O  0.35838065  0.85574412  0.66555026    -0.75100
Al633      Al  0.31392695  0.82710614  0.69234712     1.49000
C634        C  0.39518679  0.84279773  0.66087206     0.92200
O635        O  0.42310313  0.83127201  0.76619667    -0.81300
O636        O  0.32197628  0.78036506  0.81166741    -0.74900
Al637      Al  0.39185601  0.78951838  0.73639249     1.90100
O638        O  0.37666568  0.84546045  0.81551154    -0.74000
O639        O  0.26588951  0.82737403  0.77675529    -0.73800
O640        O  0.32345011  0.89107945  0.77277840    -0.79500
O641        O  0.26610015  0.79876052  0.71319009    -0.77700
O642        O  0.34349838  0.81712667  0.73939020    -1.13800
O643        O  0.32729736  0.77683009  0.66336495    -0.73000
C644        C  0.34626170  0.74424608  0.67333718     0.97700
C645        C  0.41393653  0.84601067  0.80246446     0.94100
Al646      Al  0.32380929  0.83466312  0.78976938     1.55600
O647        O  0.41000137  0.81504239  0.68461155    -0.77600
C648        C  0.24733811  0.80734161  0.74754349     0.98300
C649        C  0.35135060  0.75452630  0.81213324     0.93200
O650        O  0.38267850  0.75843595  0.78764318    -0.82900
C651        C  0.57420094  0.86929290  0.49502695     0.79600
N652        N  0.54705044  0.87306705  0.52824411    -0.78700
C653        C  0.50571735  0.87866280  0.52135874     0.82100
N654        N  0.49150456  0.87998736  0.48066517    -0.78600
C655        C  0.51838446  0.87193290  0.94767922     0.82200
N656        N  0.56012544  0.86672451  0.95376091    -0.80400
C657        C  0.48004571  0.83187843  0.84001743    -0.20900
C658        C  0.44716011  0.85948485  0.83248004    -0.07500
C659        C  0.44273703  0.89501065  0.85907756     0.13400
C660        C  0.46896053  0.90005683  0.89472564    -0.21000
C661        C  0.49950191  0.87050815  0.90445714    -0.07500
C662        C  0.50602966  0.83666684  0.87594545     0.13400
C663        C  0.53789619  0.80367239  0.88503804    -0.24300
H664        H  0.48322890  0.80452212  0.81970330     0.14700
H665        H  0.46426120  0.92620293  0.91635768     0.14700
C666        C  0.41018488  0.92743361  0.85020230    -0.24300
H667        H  0.53757015  0.77857039  0.86034255     0.04900
H668        H  0.53115709  0.78923600  0.91646641     0.08100
H669        H  0.56970601  0.81773443  0.88540942     0.08100
H670        H  0.37829471  0.91408529  0.85374305     0.08100
H671        H  0.41433453  0.93922143  0.81718684     0.08100
H672        H  0.41278906  0.95434002  0.87265123     0.04900
C673        C  0.45648435  0.88101338  0.63238230    -0.20900
C674        C  0.42027925  0.85739788  0.62471222    -0.07500
C675        C  0.41030704  0.84446887  0.58275416     0.13400
C676        C  0.43792240  0.85392928  0.54945261    -0.21000
C677        C  0.47549186  0.87567560  0.55711427    -0.07500
C678        C  0.48411184  0.89088481  0.59888617     0.13400
C679        C  0.52152714  0.91826425  0.60829236    -0.24300
H680        H  0.46343915  0.89112316  0.66478408     0.14700
H681        H  0.43103435  0.84231858  0.51755894     0.14700
C682        C  0.37176016  0.81863354  0.57335032    -0.24300
H683        H  0.52106283  0.93012636  0.64178123     0.04900
H684        H  0.52155547  0.94551916  0.58675022     0.08100
H685        H  0.55087938  0.90069063  0.60391818     0.08100
H686        H  0.34336635  0.83600800  0.58306534     0.08100
H687        H  0.37307846  0.78897407  0.59112730     0.08100
H688        H  0.36902847  0.81085432  0.53877763     0.04900
C689        C  0.31318602  0.67166062  0.88874031    -0.20900
C690        C  0.34941480  0.66558684  0.91283225    -0.07500
C691        C  0.38723457  0.68503493  0.90063081     0.13400
C692        C  0.38736843  0.71228090  0.86592138    -0.21000
C693        C  0.35038021  0.72095823  0.84383355    -0.07500
C694        C  0.31303172  0.69946193  0.85449228     0.13400
C695        C  0.27310393  0.70540479  0.82983430    -0.24300
H696        H  0.28443363  0.65598074  0.89800089     0.14700
H697        H  0.41608953  0.72834512  0.85725954     0.14700
C698        C  0.42736271  0.67694361  0.92405923    -0.24300
H699        H  0.24801656  0.68378599  0.84066159     0.04900
H700        H  0.27877381  0.69936538  0.79526775     0.08100
H701        H  0.26140659  0.73754436  0.83444256     0.08100
H702        H  0.43412255  0.64310023  0.92317825     0.08100
H703        H  0.42463625  0.68757101  0.95780868     0.08100
H704        H  0.45427436  0.69366496  0.90937108     0.04900
C705        C  0.30611950  0.66475362  0.59340560    -0.20900
C706        C  0.34333525  0.65490958  0.57197771    -0.07500
C707        C  0.38193105  0.66905469  0.58852528     0.13400
C708        C  0.38220463  0.69550176  0.62452998    -0.21000
C709        C  0.34469087  0.70849775  0.64358148    -0.07500
C710        C  0.30630456  0.69178172  0.62890997     0.13400
C711        C  0.26558582  0.70278041  0.65034683    -0.24300
H712        H  0.27664061  0.65322957  0.58079139     0.14700
H713        H  0.41160234  0.70827054  0.63607377     0.14700
C714        C  0.42263957  0.65673864  0.56784431    -0.24300
H715        H  0.23879538  0.68551692  0.63596957     0.04900
H716        H  0.25945098  0.73651428  0.64712350     0.08100
H717        H  0.26711213  0.69474899  0.68474821     0.08100
H718        H  0.42398389  0.66808354  0.53455081     0.08100
H719        H  0.42532369  0.62230716  0.56757189     0.08100
H720        H  0.44992643  0.66998923  0.58529937     0.04900
C721        C  0.30305701  0.46687599  0.95503130    -0.20900
C722        C  0.28078383  0.44872998  0.48574910    -0.07500
C723        C  0.26536272  0.47692439  0.51680412     0.13400
C724        C  0.27825783  0.51864394  0.51556634    -0.21000
C725        C  0.30587190  0.53308033  0.48388344    -0.07500
C726        C  0.31738493  0.50805983  0.95189787     0.13400
C727        C  0.34261914  0.52007142  0.91300795    -0.24300
H728        H  0.30996946  0.44488964  0.92947624     0.14700
H729        H  0.26676517  0.54018051  0.53971456     0.14700
C730        C  0.23445971  0.46351399  0.55061307    -0.24300
H731        H  0.34798310  0.49306926  0.89125692     0.04900
H732        H  0.37368691  0.53237244  0.92292517     0.08100
H733        H  0.32573226  0.54383301  0.89444321     0.08100
H734        H  0.24898277  0.44074787  0.57228615     0.08100
H735        H  0.20652476  0.44925061  0.53517445     0.08100
H736        H  0.22378308  0.49020717  0.57056735     0.04900
C737        C  0.07060203  0.36061006  0.62563457    -0.20900
C738        C  0.08698263  0.38716017  0.65737599    -0.07500
C739        C  0.12525470  0.40809738  0.64986620     0.13400
C740        C  0.14893820  0.39730206  0.61379763    -0.21000
C741        C  0.13554987  0.36584069  0.58526293    -0.07500
C742        C  0.09436460  0.34951871  0.58956985     0.13400
C743        C  0.07541606  0.31936803  0.55764767    -0.24300
H744        H  0.04050824  0.34565224  0.63075591     0.14700
H745        H  0.17946172  0.41161238  0.60974270     0.14700
C746        C  0.14156909  0.44155307  0.67979544    -0.24300
H747        H  0.04178185  0.31341044  0.56440555     0.04900
H748        H  0.09139906  0.28891216  0.55894263     0.08100
H749        H  0.07780898  0.33237365  0.52497455     0.08100
H750        H  0.15031023  0.42830990  0.71102187     0.08100
H751        H  0.11732298  0.46567492  0.68467558     0.08100
H752        H  0.16993258  0.45709252  0.66666260     0.04900
C753        C  0.16486073  0.33833143  0.84258300    -0.20900
C754        C  0.15043365  0.34854050  0.88378801    -0.07500
C755        C  0.11110106  0.36776581  0.88870017     0.13400
C756        C  0.08756462  0.37659228  0.85210182    -0.21000
C757        C  0.10211132  0.36639067  0.81082376    -0.07500
C758        C  0.14129528  0.34646979  0.80614117     0.13400
C759        C  0.15808174  0.33166045  0.76341873    -0.24300
H760        H  0.19462692  0.32276915  0.83883675     0.14700
H761        H  0.05749949  0.39155095  0.85577068     0.14700
C762        C  0.09404419  0.37974775  0.93206567    -0.24300
H763        H  0.16560318  0.35859461  0.74280505     0.04900
H764        H  0.13477613  0.31098254  0.74748217     0.08100
H765        H  0.18734741  0.31363804  0.76680359     0.08100
H766        H  0.11665126  0.40052527  0.94889870     0.08100
H767        H  0.08823606  0.35145131  0.95131405     0.08100
H768        H  0.06392837  0.39648452  0.92959412     0.04900
C769        C  0.20387149  0.19901843  0.67150678    -0.20900
C770        C  0.22877638  0.16332325  0.66697631    -0.07500
C771        C  0.24678153  0.15426561  0.62639631     0.13400
C772        C  0.24129010  0.18234066  0.59254440    -0.21000
C773        C  0.21906683  0.21939012  0.59854490    -0.07500
C774        C  0.19913651  0.22725915  0.63813218     0.13400
C775        C  0.17285059  0.26554827  0.64544726    -0.24300
H776        H  0.18914539  0.20580894  0.70204634     0.14700
H777        H  0.25634768  0.17653207  0.56196767     0.14700
C778        C  0.27365276  0.11659490  0.61893605    -0.24300
H779        H  0.15775792  0.26557205  0.67749962     0.04900
H780        H  0.14778543  0.26673794  0.62105266     0.08100
H781        H  0.19247010  0.29410696  0.64344904     0.08100
H782        H  0.25490726  0.08782603  0.62404928     0.08100
H783        H  0.30068977  0.11740191  0.64108823     0.08100
H784        H  0.28614696  0.11534012  0.58575854     0.04900
C785        C  0.23300172  0.15397665  0.85778745    -0.20900
C786        C  0.25338753  0.16807887  0.82073893    -0.07500
C787        C  0.27472563  0.20678532  0.82157429     0.13400
C788        C  0.27288468  0.23151346  0.85849738    -0.21000
C789        C  0.24958148  0.21914389  0.89435426    -0.07500
C790        C  0.23038697  0.17935082  0.89460983     0.13400
C791        C  0.20754591  0.16344564  0.93347337    -0.24300
H792        H  0.21749288  0.12384165  0.85724222     0.14700
H793        H  0.28796741  0.26187331  0.85841708     0.14700
C794        C  0.29968938  0.22233777  0.78380594    -0.24300
H795        H  0.19698990  0.13067484  0.92896018     0.04900
H796        H  0.17940802  0.18245511  0.93996868     0.08100
H797        H  0.22857258  0.16478860  0.96163464     0.08100
H798        H  0.27868040  0.22921188  0.75671616     0.08100
H799        H  0.32288936  0.19859096  0.77384607     0.08100
H800        H  0.31702882  0.25153169  0.79160352     0.04900
C801        C  0.24891031  0.00739940  0.71670484    -0.20900
C802        C  0.27101531  0.03520115  0.74328702    -0.07500
C803        C  0.30424569  0.01998988  0.76838572     0.13400
C804        C  0.31407148  0.97756062  0.76639899    -0.21000
C805        C  0.29177660  0.94950218  0.74017428    -0.07500
C806        C  0.25852512  0.96479296  0.71493684     0.13400
C807        C  0.23216690  0.93671027  0.68679012    -0.24300
H808        H  0.22343946  0.01904928  0.69759518     0.14700
H809        H  0.33967112  0.96625174  0.78553167     0.14700
C810        C  0.33060632  0.04821284  0.79640583    -0.24300
H811        H  0.20641054  0.95387706  0.67132546     0.04900
H812        H  0.21780347  0.91154098  0.70613462     0.08100
H813        H  0.25168305  0.92306660  0.66087966     0.08100
H814        H  0.31153025  0.06081753  0.82318260     0.08100
H815        H  0.34374185  0.07412915  0.77719236     0.08100
H816        H  0.35720243  0.03141098  0.81079621     0.04900
C817        C  0.18932334  0.75770347  0.73237050    -0.20900
C818        C  0.20329604  0.79407844  0.75344669    -0.07500
C819        C  0.17476137  0.81718001  0.77886822     0.13400
C820        C  0.13333295  0.80316797  0.78246436    -0.21000
C821        C  0.11947747  0.76724780  0.76091479    -0.07500
C822        C  0.14767855  0.74405501  0.73569632     0.13400
C823        C  0.13418000  0.70454129  0.71314208    -0.24300
H824        H  0.21110870  0.73976451  0.71333017     0.14700
H825        H  0.11118041  0.82102059  0.80134977     0.16700
C826        C  0.18691295  0.85743806  0.80098408    -0.24300
H827        H  0.16065332  0.68954903  0.69599719     0.04900
H828        H  0.10966321  0.71139061  0.68930140     0.08100
H829        H  0.12159719  0.68211752  0.73682736     0.08100
H830        H  0.19997238  0.87964192  0.77735637     0.08100
H831        H  0.21032771  0.85147714  0.82620728     0.08100
H832        H  0.15968918  0.87251268  0.81672290     0.04900
C833        C  0.67897189  0.82124163  0.03395242    -0.20900
C834        C  0.70590992  0.84828978  0.51236388    -0.07500
C835        C  0.69128838  0.87492562  0.48022005     0.13400
C836        C  0.64832168  0.88166287  0.47597371    -0.21000
C837        C  0.61928743  0.86250236  0.50320538    -0.07500
C838        C  0.63569409  0.82620471  0.02882169     0.13400
C839        C  0.60633927  0.79644631  0.05112198    -0.24300
H840        H  0.69058419  0.79667577  0.05409988     0.14700
H841        H  0.63729262  0.90192169  0.45099606     0.14700
C842        C  0.72102167  0.89688439  0.45071951    -0.24300
H843        H  0.62356183  0.77217151  0.06872560     0.04900
H844        H  0.58597474  0.78052595  0.02726075     0.08100
H845        H  0.58763139  0.83687495  0.58685352     0.08100
H846        H  0.74244664  0.88728780  0.93927006     0.08100
H847        H  0.74396960  0.91517266  0.46994164     0.08100
H848        H  0.70466558  0.91862277  0.42919897     0.04900
C849        C  0.91638015  0.76189841  0.65395780    -0.20900
C850        C  0.93389901  0.78619644  0.62126273    -0.07500
C851        C  0.97717248  0.79612545  0.62289971     0.13400
C852        C  0.00070289  0.78345171  0.65814524    -0.21000
C853        C  0.98245913  0.76171717  0.69243275    -0.07500
C854        C  0.93972754  0.74985549  0.68953971     0.13400
C855        C  0.91790025  0.72477591  0.72355511    -0.24300
H856        H  0.88346936  0.75367927  0.65274111     0.14700
H857        H  0.03343100  0.79230991  0.65959767     0.14700
C858        C  0.99920161  0.82016861  0.58809191    -0.24300
H859        H  0.88581709  0.71528266  0.71383077     0.04900
H860        H  0.91472528  0.74373746  0.75319167     0.08100
H861        H  0.93568633  0.69598470  0.72983099     0.08100
H862        H  0.98746499  0.85254343  0.58719493     0.08100
H863        H  0.99415702  0.80447997  0.55671138     0.08100
H864        H  0.03346804  0.82220192  0.59346227     0.04900
C865        C  0.00942863  0.78117103  0.87851541    -0.20900
C866        C  0.99388704  0.75203114  0.84865825    -0.07500
C867        C  0.95634799  0.73034571  0.85789019     0.13400
C868        C  0.93228881  0.74280061  0.89317254    -0.21000
C869        C  0.94572600  0.77499469  0.92061949    -0.07500
C870        C  0.98600462  0.79268097  0.91472300     0.13400
C871        C  0.00352617  0.82540195  0.94472797    -0.24300
H872        H  0.03877715  0.79708830  0.87207581     0.14700
H873        H  0.90217076  0.72795042  0.89864841     0.14700
C874        C  0.94096492  0.69376794  0.83166975    -0.24300
H875        H  0.03495407  0.83642356  0.93438894     0.04900
H876        H  0.00665167  0.81227389  0.97722624     0.08100
H877        H  0.98264989  0.85272342  0.94608612     0.08100
H878        H  0.96318554  0.68453116  0.80608144     0.08100
H879        H  0.91032642  0.70114292  0.81721988     0.08100
H880        H  0.93680323  0.66644454  0.85277271     0.04900
C881        C  0.81434351  0.97891027  0.66157817    -0.20900
C882        C  0.85018642  0.98422530  0.68676915    -0.07500
C883        C  0.88827342  0.96613994  0.67372836     0.13400
C884        C  0.88909456  0.94129818  0.63661348    -0.21000
C885        C  0.85248949  0.93349413  0.61330112    -0.07500
C886        C  0.81486686  0.95294177  0.62531820     0.13400
C887        C  0.77515124  0.94525497  0.60062094    -0.24300
H888        H  0.78527163  0.99308306  0.67178211     0.14700
H889        H  0.91774459  0.92577782  0.62726972     0.14700
C890        C  0.92777393  0.97262104  0.69911383    -0.24300
H891        H  0.74876150  0.96368413  0.61379856     0.04900
H892        H  0.76624719  0.91184168  0.60207304     0.08100
H893        H  0.77991777  0.95410117  0.56670848     0.08100
H894        H  0.92396640  0.95946487  0.73157346     0.08100
H895        H  0.93491540  0.00642329  0.70186662     0.08100
H896        H  0.95491899  0.95716506  0.68362264     0.04900
C897        C  0.88489330  0.95350744  0.84548475    -0.20900
C898        C  0.84869252  0.97771918  0.84233932    -0.07500
C899        C  0.81676986  0.97332146  0.87344258     0.13400
C900        C  0.82179362  0.94488433  0.90653163    -0.21000
C901        C  0.85742358  0.92021708  0.90911406    -0.07500
C902        C  0.88966203  0.92471856  0.87847906     0.13400
C903        C  0.92805628  0.89791510  0.87917528    -0.24300
H904        H  0.90909160  0.95636742  0.82127370     0.14700
H905        H  0.79740986  0.94137908  0.93032512     0.14700
C906        C  0.77654743  0.99689459  0.87128130    -0.24300
H907        H  0.94899363  0.90408431  0.85148927     0.04900
H908        H  0.91889747  0.86449254  0.87806257     0.08100
H909        H  0.94599226  0.90460045  0.90873964     0.08100
H910        H  0.76218050  0.99310495  0.83921206     0.08100
H911        H  0.78323952  0.02990103  0.87841420     0.08100
H912        H  0.75345209  0.98603198  0.89543705     0.04900
C913        C  0.82201558  0.66872518  0.48402483    -0.20900
C914        C  0.80061519  0.69469635  0.51307127    -0.07500
C915        C  0.77168886  0.67662256  0.54213749     0.13400
C916        C  0.76507971  0.63350539  0.54113600    -0.21000
C917        C  0.78605561  0.60772134  0.51187276    -0.07500
C918        C  0.81516936  0.62550285  0.48303570     0.13400
C919        C  0.84006708  0.59924216  0.45208403    -0.24300
H920        H  0.84454299  0.68226901  0.46209756     0.14700
H921        H  0.74268638  0.61978442  0.56310212     0.14700
C922        C  0.74660893  0.70216450  0.57370165    -0.24300
H923        H  0.86345320  0.61810209  0.43421846     0.04900
H924        H  0.78304606  0.58861634  0.92247493     0.08100
H925        H  0.85713743  0.57487919  0.46969120     0.08100
H926        H  0.73250095  0.72949169  0.07471741     0.08100
H927        H  0.76769594  0.71708356  0.59753663     0.08100
H928        H  0.72381813  0.68277364  0.59174796     0.04900
C929        C  0.94911845  0.33841535  0.77821423    -0.20900
C930        C  0.96222631  0.36688494  0.74702121    -0.07500
C931        C  0.93207176  0.38502230  0.72012918     0.13400
C932        C  0.89001975  0.37325168  0.72452192    -0.21000
C933        C  0.87707961  0.34386613  0.75491558    -0.07500
C934        C  0.90712699  0.32654677  0.78256280     0.13400
C935        C  0.89594286  0.29461970  0.81589082    -0.24300
H936        H  0.97211843  0.32436318  0.79877195     0.14700
H937        H  0.86702831  0.38709729  0.70378789     0.14700
C938        C  0.94339606  0.41739401  0.68734396    -0.24300
H939        H  0.92394917  0.28334359  0.83299191     0.04900
H940        H  0.88061531  0.26720824  0.80048464     0.08100
H941        H  0.87480674  0.30852334  0.84028112     0.08100
H942        H  0.96266283  0.40336685  0.66147980     0.08100
H943        H  0.96077019  0.44348336  0.70287099     0.08100
H944        H  0.91521938  0.43053365  0.67203324     0.04900
C945        C  0.76751072  0.16579129  0.79104523    -0.20900
C946        C  0.78657687  0.19213639  0.76113553    -0.07500
C947        C  0.81870637  0.17631390  0.73432774     0.13400
C948        C  0.83042979  0.13465196  0.73820927    -0.21000
C949        C  0.81155502  0.10837994  0.76836922    -0.07500
C950        C  0.77976383  0.12434106  0.79526776     0.13400
C951        C  0.75870068  0.09840792  0.82875247    -0.24300
H952        H  0.74306325  0.17785803  0.81172830     0.14700
H953        H  0.85495112  0.12251417  0.71766943     0.14700
C954        C  0.84178778  0.20295794  0.70234075    -0.24300
H955        H  0.73190133  0.11473236  0.84392435     0.04900
H956        H  0.78176238  0.09251886  0.85416463     0.08100
H957        H  0.74671745  0.06888262  0.81447778     0.08100
H958        H  0.86721371  0.18560439  0.68593752     0.08100
H959        H  0.85625077  0.23025134  0.71881770     0.08100
H960        H  0.81995736  0.21353195  0.67727744     0.04900
C961        C  0.78055540  0.42761241  0.64123111    -0.20900
C962        C  0.74336767  0.42999044  0.66512061    -0.07500
C963        C  0.71403418  0.46118635  0.65570092     0.13400
C964        C  0.72126017  0.48699289  0.62023555    -0.21000
C965        C  0.75688659  0.48184274  0.59437424    -0.07500
C966        C  0.78765548  0.45297340  0.60596632     0.13400
C967        C  0.82785179  0.44726857  0.58123096    -0.24300
H968        H  0.80357356  0.40426970  0.64894474     0.14700
H969        H  0.69801401  0.50959758  0.61125485     0.14700
C970        C  0.67417045  0.46559105  0.68106471    -0.24300
H971        H  0.85481772  0.45224243  0.60300079     0.04900
H972        H  0.83147311  0.46929183  0.55439696     0.08100
H973        H  0.82909382  0.41508265  0.56802627     0.08100
H974        H  0.68163449  0.47299510  0.71495409     0.08100
H975        H  0.65581238  0.43612506  0.67938251     0.08100
H976        H  0.65438902  0.49096742  0.66865466     0.04900
C977        C  0.77119019  0.41618198  0.90009206    -0.20900
C978        C  0.73958105  0.42136328  0.86943626    -0.07500
C979        C  0.71128173  0.45491156  0.87454627     0.13400
C980        C  0.71449431  0.48090360  0.91082753    -0.21000
C981        C  0.74445731  0.47371952  0.94231263    -0.07500
C982        C  0.77381708  0.44171851  0.93646932     0.13400
C983        C  0.80834660  0.43471777  0.96825051    -0.24300
H984        H  0.79340255  0.39111157  0.89644421     0.14700
H985        H  0.69265123  0.50619057  0.91540022     0.14700
C986        C  0.67759017  0.46378665  0.84240747    -0.24300
H987        H  0.82987659  0.40974700  0.95746861     0.04900
H988        H  0.79491684  0.42527466  0.99946342     0.08100
H989        H  0.82699853  0.46377430  0.97251347     0.08100
H990        H  0.65439872  0.43789592  0.84162588     0.08100
H991        H  0.69173083  0.46792555  0.81021856     0.08100
H992        H  0.66032271  0.49265183  0.85060751     0.04900
C993        C  0.62927668  0.24877860  0.58836150    -0.20900
C994        C  0.59016242  0.26803764  0.58680277    -0.07500
C995        C  0.57736869  0.29353405  0.62162622     0.13400
C996        C  0.60522097  0.30103563  0.65539197    -0.21000
C997        C  0.64569511  0.28430849  0.65529989    -0.07500
C998        C  0.65739424  0.25670633  0.62167823     0.13400
C999        C  0.69988309  0.23674201  0.61896552    -0.24300
H1000       H  0.63865227  0.22843373  0.56226569     0.14700
H1001       H  0.59572215  0.32149199  0.68138382     0.14700
C1002       C  0.53545212  0.31457105  0.62300579    -0.24300
H1003       H  0.70303912  0.21633612  0.59025938     0.04900
H1004       H  0.70502548  0.21708800  0.64741577     0.08100
H1005       H  0.72460828  0.26110493  0.61676390     0.08100
H1006       H  0.53169297  0.33454592  0.59454468     0.08100
H1007       H  0.51029386  0.29063413  0.62414571     0.08100
H1008       H  0.53183199  0.33472730  0.65183956     0.04900
C1009       C  0.57455260  0.28326458  0.89531959    -0.20900
C1010       C  0.59046263  0.25745766  0.92733211    -0.07500
C1011       C  0.62975162  0.23853642  0.92061869     0.13400
C1012       C  0.65412373  0.25038976  0.88531142    -0.21000
C1013       C  0.64010125  0.28019111  0.85618881    -0.07500
C1014       C  0.59867731  0.29480434  0.85977716     0.13400
C1015       C  0.58029628  0.32454122  0.82808301    -0.24300
H1016       H  0.54422881  0.29705178  0.89940833     0.14700
H1017       H  0.68518544  0.23760725  0.88147536     0.14700
C1018       C  0.64630948  0.20579025  0.95010304    -0.24300
H1019       H  0.54755744  0.33274987  0.83632604     0.04900
H1020       H  0.58000921  0.30996561  0.79572974     0.08100
H1021       H  0.59890907  0.35386468  0.82754947     0.08100
H1022       H  0.62252730  0.18076656  0.95429235     0.08100
H1023       H  0.67514033  0.19127747  0.93707927     0.08100
H1024       H  0.65447159  0.21962490  0.98150557     0.04900
C1025       C  0.43609840  0.27141397  0.04483642    -0.20900
C1026       C  0.45746210  0.27334890  0.50735820    -0.07500
C1027       C  0.43189803  0.26406094  0.47143713     0.13400
C1028       C  0.38959347  0.27477073  0.47280508    -0.21000
C1029       C  0.37191632  0.29411996  0.50888044    -0.07500
C1030       C  0.39354255  0.28237247  0.04738272     0.13400
C1031       C  0.36941383  0.27200179  0.08744388    -0.24300
H1032       H  0.45043675  0.25605924  0.07167099     0.14700
H1033       H  0.37011147  0.26844740  0.44513636     0.14700
C1034       C  0.44814678  0.24268253  0.43157461    -0.24300
H1035       H  0.38924257  0.25624116  0.11131464     0.04900
H1036       H  0.34295593  0.25069231  0.07959196     0.08100
H1037       H  0.36583195  0.35291015  0.57699070     0.08100
H1038       H  0.47360096  0.28274300  0.91523310     0.08100
H1039       H  0.47038486  0.26339508  0.41447436     0.08100
H1040       H  0.42260147  0.23488365  0.40881726     0.04900
loop_ 
_geom_bond_atom_site_label_1 
_geom_bond_atom_site_label_2 
_geom_bond_distance 
_geom_bond_site_symmetry_2 
_ccdc_geom_bond_type 
C1            N6   1.362       .  A
C1          N522   1.357   1_554  A
C1          C506   1.492       .  S
N2            C3   1.355       .  A
N2          C521   1.357       .  A
C3            N4   1.354       .  A
C3          C490   1.478       .  S
N4          C525   1.357       .  A
C5            N6   1.362       .  A
C5          N524   1.360       .  A
C5          C474   1.502       .  S
O7           C22   1.258       .  A
O7          Al15   1.889       .  S
C8          C413   1.477       .  S
C8           O18   1.259       .  A
C8            O9   1.262       .  A
O9          Al11   1.918       .  S
O10          C12   1.259       .  A
O10         Al11   1.878       .  S
Al11         O19   1.883       .  S
Al11         O21   1.911       .  S
Al11         O20   1.777       .  S
C12         C458   1.482       .  S
C12          O25   1.266       .  A
O13          C23   1.259       .  A
O13         Al15   1.896       .  S
O14          C27   1.259       .  A
O14         Al24   1.885       .  S
Al15         O28   1.931       .  S
Al15         O25   1.931       .  S
Al15         O20   1.781       .  S
O16          C23   1.260       .  A
O16         Al24   1.893       .  S
O17          C26   1.259       .  A
O17         Al24   1.902       .  S
O18         Al24   1.881       .  S
O19          C26   1.260       .  A
O20         Al24   1.773       .  S
O21          C22   1.263       .  A
C22         C493   1.477       .  S
C23         C442   1.468       .  S
C26         C426   1.477       .  S
C27         C477   1.483       .  S
C27          O28   1.267       .  A
C29          N34   1.359       .  A
C29         N550   1.358   1_554  A
C29         C397   1.479       .  S
N30          C31   1.357       .  A
N30         C549   1.360       .  A
C31         N552   1.355       .  A
C31         C461   1.469       .  S
N32          C33   1.354       .  A
N32         C551   1.354   1_554  A
C33          N34   1.353       .  A
C33         C445   1.461       .  S
C35          N36   1.357       .  A
C35          N40   1.357       .  A
C35         C429   1.472       .  S
N36          C37   1.354       .  A
C37          N38   1.354   1_545  A
C37         C378   1.462   1_545  S
N38          C39   1.354   1_565  A
C39          N40   1.354       .  A
C39         C362   1.469   1_545  S
O41          C56   1.259       .  A
O41         Al49   1.893       .  S
C42         C394   1.484       .  S
C42          O43   1.258       .  A
C42         O572   1.260   1_554  A
O43         Al45   1.898       .  S
O44          C46   1.261       .  A
O44         Al45   1.898       .  S
Al45         O53   1.903       .  S
Al45         O55   1.895       .  S
Al45         O54   1.783       .  S
C46         C330   1.488       .  S
C46          O59   1.261       .  A
O47          C57   1.259       .  A
O47        Al569   1.896       .  S
O48          C61   1.260       .  A
O48         Al58   1.889       .  S
Al49         O59   1.909       .  S
Al49        O567   1.893   1_554  S
Al49        O582   1.918   1_554  S
Al49         O54   1.789       .  S
O50          C57   1.261       .  A
O50         Al58   1.902       .  S
O51         C580   1.261       .  A
O51         Al58   1.910       .  S
O52         C562   1.259       .  A
O52         Al58   1.893       .  S
O53          C60   1.261       .  A
O54        Al578   1.778   1_554  S
O55          C56   1.259       .  A
C56         C365   1.456       .  S
C57         C349   1.477       .  S
Al58        O574   1.782       .  S
C60         C314   1.472       .  S
C60         O571   1.261   1_554  A
C61         C381   1.486       .  S
C61          O62   1.261       .  A
O62        Al569   1.913       .  S
C63          N64   1.357       .  A
C63          N68   1.359       .  A
C63         C301   1.488       .  S
N64          C65   1.358       .  A
C65          N66   1.357   1_455  A
C65         C333   1.494   1_455  S
N66          C67   1.358   1_655  A
C67          N68   1.357       .  A
C67         C346   1.478   1_455  S
C69          N70   1.360       .  A
C69          N74   1.358       .  A
C69         C282   1.470       .  S
N70          C71   1.358       .  A
C71          N72   1.355       .  A
C71         C250   1.478       .  S
N72          C73   1.353       .  A
C73          N74   1.354       .  A
C73         C266   1.466       .  S
O75          C90   1.262       .  A
O75        Al603   1.904       .  S
C76         C509   1.491       .  S
C76          O86   1.260       .  A
C76         O597   1.263   1_554  A
O77         C596   1.260       .  A
O77         Al79   1.896       .  S
O78          C80   1.259       .  A
O78         Al79   1.884       .  S
Al79         O87   1.888       .  S
Al79         O89   1.890       .  S
Al79        O608   1.778       .  S
C80         C269   1.477       .  S
C80          O93   1.261       .  A
O81          C91   1.258       .  A
O81         Al83   1.895   1_554  S
O82          C95   1.261       .  A
O82         Al92   1.885       .  S
Al83         O96   1.925   1_556  S
Al83        O595   1.900       .  S
Al83        O613   1.926       .  S
Al83         O88   1.778       .  S
O84          C91   1.261       .  A
O84         Al92   1.905       .  S
O85          C94   1.263   1_554  A
O85         Al92   1.915       .  S
O86         Al92   1.906       .  S
O87         C614   1.257       .  A
O88         Al92   1.776   1_556  S
O88        Al599   1.769       .  S
O89          C90   1.260       .  A
C90         C234   1.472       .  S
C91         C253   1.462       .  S
O93        Al603   1.910       .  S
C94         C202   1.469       .  S
C94         O607   1.258       .  A
C95         C221   1.489       .  S
C95          O96   1.265       .  A
C97          N98   1.358       .  A
C97         N102   1.358       .  A
C97         C410   1.473   1_455  S
N98          C99   1.355       .  A
C99         N100   1.353       .  A
C99         C237   1.477       .  S
N100        C101   1.354       .  A
C101        N102   1.356       .  A
C101        C218   1.475       .  S
C103        N104   1.356   1_556  A
C103        N628   1.357       .  A
C103        C205   1.480       .  S
N104        C105   1.351       .  A
C105        N106   1.356   1_554  A
C105        C186   1.462       .  S
N106        C627   1.357       .  A
C107        N108   1.357       .  A
C107        N626   1.356       .  A
C107        C170   1.473       .  S
N108        C623   1.359       .  A
O109        C124   1.259       .  A
O109       Al117   1.905       .  S
C110        C285   1.476       .  S
C110        O120   1.261       .  A
C110        O111   1.260       .  A
O111       Al113   1.907       .  S
O112        C114   1.262       .  A
O112       Al113   1.890       .  S
Al113       O121   1.892       .  S
Al113       O123   1.875       .  S
Al113       O122   1.783       .  S
C114        C154   1.468       .  S
C114        O127   1.265       .  A
O115        C125   1.259       .  A
O115       Al117   1.904       .  S
O116        C129   1.260       .  A
O116       Al126   1.884       .  S
Al117       O130   1.919       .  S
Al117       O127   1.913       .  S
Al117       O122   1.786       .  S
O118        C125   1.259       .  A
O118       Al126   1.903       .  S
O119        C128   1.261       .  A
O119       Al126   1.917       .  S
O120       Al126   1.892       .  S
O121        C128   1.260       .  A
O122       Al126   1.780       .  S
O123        C124   1.253       .  A
C124        C189   1.466       .  S
C125        C138   1.481       .  S
C128        C298   1.491       .  S
C129        C173   1.470       .  S
C129        O130   1.266       .  A
C131        N132   1.357   1_556  A
C131        N656   1.363       .  A
C131        C317   1.481   1_556  S
N132        C133   1.356       .  A
C133        N134   1.358   1_554  A
C133        C157   1.489       .  S
N134        C655   1.357       .  A
C135        N136   1.361       .  A
C135        N654   1.355       .  A
C135        C141   1.483       .  S
N136        C651   1.365       .  A
C137        C138   1.405       .  A
C137        C142   1.408       .  A
C137        H144   1.084       .  S
C138        C139   1.414       .  A
C139        C140   1.402       .  A
C139        C146   1.508       .  S
C140        C141   1.404       .  A
C140        H145   1.084       .  S
C141        C142   1.415       .  A
C142        C143   1.507       .  S
C143        H147   1.111       .  S
C143        H148   1.110       .  S
C143        H149   1.110       .  S
C146        H150   1.108       .  S
C146        H151   1.109       .  S
C146        H152   1.111       .  S
C153        C154   1.399       .  A
C153        C158   1.405       .  A
C153        H160   1.084       .  S
C154        C155   1.410       .  A
C155        C156   1.399       .  A
C155        C162   1.509       .  S
C156        C157   1.407       .  A
C156        H161   1.084       .  S
C157        C158   1.421       .  A
C158        C159   1.508       .  S
C159        H163   1.111       .  S
C159        H164   1.110       .  S
C159        H165   1.108       .  S
C162        H166   1.110       .  S
C162        H167   1.110       .  S
C162        H168   1.111       .  S
C169        C170   1.404       .  A
C169        C174   1.404       .  A
C169        H176   1.084       .  S
C170        C171   1.412       .  A
C171        C172   1.400       .  A
C171        C178   1.506       .  S
C172        C173   1.401       .  A
C172        H177   1.085       .  S
C173        C174   1.413       .  A
C174        C175   1.508       .  S
C175        H179   1.111       .  S
C175        H180   1.110       .  S
C175        H181   1.109       .  S
C178        H182   1.110       .  S
C178        H183   1.108       .  S
C178        H184   1.111       .  S
C185        C186   1.399       .  A
C185        C190   1.399       .  A
C185        H192   1.085       .  S
C186        C187   1.407       .  A
C187        C188   1.403       .  A
C187        C194   1.505       .  S
C188        C189   1.403       .  A
C188        H193   1.084       .  S
C189        C190   1.414       .  A
C190        C191   1.509       .  S
C191        H195   1.111       .  S
C191        H196   1.109       .  S
C191        H197   1.110       .  S
C194        H198   1.110       .  S
C194        H199   1.110       .  S
C194        H200   1.111       .  S
C201        C206   1.404       .  A
C201        C722   1.401       .  A
C201        H208   1.084       .  S
C202        C203   1.410   1_556  A
C202        C721   1.402       .  A
C203        C204   1.398       .  A
C203        C210   1.508       .  S
C204        C205   1.407   1_554  A
C204        H209   1.084       .  S
C205        C726   1.417       .  A
C206        C725   1.418       .  A
C206        C207   1.508       .  S
C207        H211   1.111       .  S
C207        H212   1.110       .  S
C207        H213   1.109       .  S
C210        H214   1.109       .  S
C210        H215   1.110       .  S
C210        H216   1.111       .  S
C217        C218   1.403       .  A
C217        C222   1.404       .  A
C217        H224   1.084       .  S
C218        C219   1.410       .  A
C219        C220   1.399       .  A
C219        C226   1.509       .  S
C220        C221   1.409       .  A
C220        H225   1.082       .  S
C221        C222   1.420       .  A
C222        C223   1.508       .  S
C223        H227   1.111       .  S
C223        H228   1.108       .  S
C223        H229   1.110       .  S
C226        H230   1.108       .  S
C226        H231   1.110       .  S
C226        H232   1.111       .  S
C233        C234   1.402       .  A
C233        C238   1.395       .  A
C233        H240   1.085       .  S
C234        C235   1.411       .  A
C235        C236   1.406       .  A
C235        C242   1.507       .  S
C236        C237   1.406       .  A
C236        H241   1.084       .  S
C237        C238   1.417       .  A
C238        C239   1.511       .  S
C239        H243   1.110       .  S
C239        H244   1.110       .  S
C239        H245   1.111       .  S
C242        H246   1.111       .  S
C242        H247   1.109       .  S
C242        H248   1.111       .  S
C249        C250   1.406       .  A
C249        C254   1.398       .  A
C249        H256   1.084       .  S
C250        C251   1.417       .  A
C251        C252   1.404       .  A
C251        C258   1.507       .  S
C252        C253   1.400       .  A
C252        H257   1.084       .  S
C253        C254   1.408       .  A
C254        C255   1.509       .  S
C255        H259   1.111       .  S
C255        H260   1.110       .  S
C255        H261   1.110       .  S
C258        H262   1.110       .  S
C258        H263   1.111       .  S
C258        H264   1.111       .  S
C265        C266   1.398       .  A
C265        C270   1.399       .  A
C265        H272   1.085       .  S
C266        C267   1.409       .  A
C267        C268   1.401       .  A
C267        C274   1.504       .  S
C268        C269   1.406       .  A
C268        H273   1.084       .  S
C269        C270   1.419       .  A
C270        C271   1.509       .  S
C271        H275   1.111       .  S
C271        H276   1.109       .  S
C271        H277   1.110       .  S
C274        H278   1.110       .  S
C274        H279   1.105       .  S
C274        H280   1.111       .  S
C281        C282   1.401       .  A
C281        C286   1.402   1_545  A
C281        H288   1.084       .  S
C282        C283   1.411       .  A
C283        C284   1.398   1_545  A
C283        C290   1.504       .  S
C284        C285   1.402       .  A
C284        H289   1.083       .  S
C285        C286   1.418       .  A
C286        C287   1.509       .  S
C287        H291   1.111       .  S
C287        H292   1.111       .  S
C287        H293   1.110       .  S
C290        H294   1.105       .  S
C290        H295   1.111       .  S
C290        H296   1.111       .  S
C297        C298   1.407       .  A
C297        C302   1.402       .  A
C297        H304   1.083       .  S
C298        C299   1.421       .  A
C299        C300   1.403       .  A
C299        C306   1.510       .  S
C300        C301   1.405       .  A
C300        H305   1.084       .  S
C301        C302   1.417       .  A
C302        C303   1.509       .  S
C303        H307   1.111       .  S
C303        H308   1.108       .  S
C303        H309   1.110       .  S
C306        H310   1.110       .  S
C306        H311   1.110       .  S
C306        H312   1.111       .  S
C313        C318   1.407       .  A
C313        C834   1.400       .  A
C313        H320   1.084       .  S
C314        C315   1.410   1_554  A
C314        C833   1.400       .  A
C315        C316   1.405       .  A
C315        C322   1.503       .  S
C316        C317   1.403   1_556  A
C316        H321   1.084       .  S
C317        C838   1.418       .  A
C318        C837   1.422       .  A
C318        C319   1.508       .  S
C319        H323   1.111       .  S
C319        H324   1.110       .  S
C319        H845   1.108       .  S
C322        H327   1.111       .  S
C322        H328   1.111       .  S
C322        H846   1.109       .  S
H325        C839   1.108       .  S
H326        C842   1.109       .  S
C329        C330   1.405       .  A
C329        C334   1.404       .  A
C329        H336   1.084       .  S
C330        C331   1.418       .  A
C331        C332   1.402       .  A
C331        C338   1.510       .  S
C332        C333   1.407       .  A
C332        H337   1.083   1_655  S
C333        C334   1.420       .  A
C334        C335   1.507       .  S
C335        H339   1.111       .  S
C335        H340   1.108       .  S
C335        H341   1.110       .  S
C338        H342   1.109       .  S
C338        H343   1.110       .  S
C338        H344   1.111   1_655  S
C345        C346   1.406   1_455  A
C345        C350   1.404   1_455  A
C345        H352   1.084       .  S
C346        C347   1.413       .  A
C347        C348   1.399       .  A
C347        C354   1.507       .  S
C348        C349   1.404       .  A
C348        H353   1.085       .  S
C349        C350   1.415       .  A
C350        C351   1.508   1_655  S
C351        H355   1.111       .  S
C351        H356   1.110       .  S
C351        H357   1.108   1_455  S
C354        H358   1.108       .  S
C354        H359   1.110       .  S
C354        H360   1.111       .  S
C361        C362   1.405       .  A
C361        C366   1.401       .  A
C361        H368   1.084   1_565  S
C362        C363   1.414       .  A
C363        C364   1.399       .  A
C363        C370   1.508       .  S
C364        C365   1.399       .  A
C364        H369   1.085       .  S
C365        C366   1.406       .  A
C366        C367   1.507       .  S
C367        H371   1.111       .  S
C367        H372   1.110       .  S
C367        H373   1.110       .  S
C370        H374   1.109       .  S
C370        H375   1.110       .  S
C370        H376   1.111       .  S
C377        C378   1.398       .  A
C377        C382   1.404       .  A
C377        H384   1.084       .  S
C378        C379   1.405       .  A
C379        C380   1.397       .  A
C379        C386   1.507       .  S
C380        C381   1.404       .  A
C380        H385   1.072       .  S
C381        C382   1.420       .  A
C382        C383   1.506       .  S
C383        H387   1.111       .  S
C383        H388   1.109       .  S
C383        H389   1.110       .  S
C386        H390   1.111       .  S
C386        H391   1.107   1_565  S
C386        H392   1.111       .  S
C393        C394   1.405   1_556  A
C393        C398   1.400       .  A
C393        H400   1.084       .  S
C394        C395   1.421       .  A
C395        C396   1.399       .  A
C395        C402   1.510       .  S
C396        C397   1.402       .  A
C396        H401   1.084       .  S
C397        C398   1.417   1_554  A
C398        C399   1.509       .  S
C399        H403   1.111       .  S
C399        H405   1.110       .  S
C399        H924   1.110       .  S
C402        H407   1.110       .  S
C402        H408   1.111       .  S
C402        H926   1.110       .  S
H404        C919   1.109       .  S
H406        C922   1.111       .  S
C409        C410   1.403       .  A
C409        C414   1.400       .  A
C409        H416   1.084       .  S
C410        C411   1.412       .  A
C411        C412   1.401       .  A
C411        C418   1.508       .  S
C412        C413   1.405       .  A
C412        H417   1.084       .  S
C413        C414   1.416       .  A
C414        C415   1.509       .  S
C415        H419   1.111       .  S
C415        H420   1.110       .  S
C415        H421   1.110       .  S
C418        H422   1.109       .  S
C418        H423   1.110       .  S
C418        H424   1.111       .  S
C425        C426   1.404       .  A
C425        C430   1.398       .  A
C425        H432   1.084       .  S
C426        C427   1.419       .  A
C427        C428   1.399       .  A
C427        C434   1.510       .  S
C428        C429   1.401       .  A
C428        H433   1.084       .  S
C429        C430   1.413       .  A
C430        C431   1.506       .  S
C431        H435   1.111       .  S
C431        H436   1.109       .  S
C431        H437   1.110       .  S
C434        H438   1.111       .  S
C434        H439   1.110       .  S
C434        H440   1.110       .  S
C441        C442   1.402       .  A
C441        C446   1.395       .  A
C441        H448   1.085       .  S
C442        C443   1.413       .  A
C443        C444   1.405       .  A
C443        C450   1.507       .  S
C444        C445   1.402       .  A
C444        H449   1.084       .  S
C445        C446   1.410       .  A
C446        C447   1.509       .  S
C447        H451   1.111       .  S
C447        H452   1.109       .  S
C447        H453   1.110       .  S
C450        H454   1.110       .  S
C450        H455   1.111       .  S
C450        H456   1.111       .  S
C457        C458   1.407       .  A
C457        C462   1.402       .  A
C457        H464   1.084       .  S
C458        C459   1.418       .  A
C459        C460   1.404       .  A
C459        C466   1.508       .  S
C460        C461   1.400       .  A
C460        H465   1.084       .  S
C461        C462   1.408       .  A
C462        C463   1.507       .  S
C463        H467   1.111       .  S
C463        H468   1.111       .  S
C463        H469   1.108       .  S
C466        H470   1.111       .  S
C466        H471   1.110       .  S
C466        H472   1.111       .  S
C473        C474   1.409       .  A
C473        C478   1.399       .  A
C473        H480   1.080       .  S
C474        C475   1.423       .  A
C475        C476   1.409       .  A
C475        C482   1.507       .  S
C476        C477   1.404       .  A
C476        H481   1.084       .  S
C477        C478   1.414       .  A
C478        C479   1.511       .  S
C479        H483   1.111       .  S
C479        H484   1.110       .  S
C479        H485   1.110       .  S
C482        H486   1.109       .  S
C482        H487   1.110       .  S
C482        H488   1.111       .  S
C489        C490   1.403       .  A
C489        C494   1.401       .  A
C489        H496   1.084       .  S
C490        C491   1.415       .  A
C491        C492   1.402       .  A
C491        C498   1.508       .  S
C492        C493   1.403       .  A
C492        H497   1.084       .  S
C493        C494   1.416       .  A
C494        C495   1.509       .  S
C495        H499   1.111       .  S
C495        H500   1.110       .  S
C495        H501   1.109       .  S
C498        H502   1.110       .  S
C498        H503   1.111       .  S
C498        H504   1.107       .  S
C505        C510   1.399       .  A
C505       C1026   1.409       .  A
C505        H512   1.080       .  S
C506        C507   1.420   1_554  A
C506       C1025   1.409       .  A
C507        C508   1.394       .  A
C507        C514   1.508       .  S
C508        C509   1.404   1_556  A
C508        H513   1.083       .  S
C509       C1030   1.419       .  A
C510       C1029   1.408       .  A
C510        C511   1.508       .  S
C511        H515   1.111       .  S
C511        H516   1.110       .  S
C511       H1037   1.111       .  S
C514        H519   1.110       .  S
C514        H520   1.111       .  S
C514       H1038   1.109       .  S
H517       C1031   1.110       .  S
H518       C1034   1.110       .  S
C521        N526   1.359       .  A
C521       C1026   1.486       .  S
N522        C523   1.354       .  A
C523        N524   1.354   1_556  A
C523       C1010   1.487       .  S
C525        N526   1.355       .  A
C525        C994   1.482       .  S
O527        C542   1.262       .  A
O527       Al535   1.899       .  S
C528        C933   1.480       .  S
C528        O538   1.260       .  A
C528        O529   1.262       .  A
O529       Al531   1.909       .  S
O530        C532   1.258       .  A
O530       Al531   1.879       .  S
Al531       O539   1.884       .  S
Al531       O541   1.904       .  S
Al531       O540   1.774       .  S
C532        C978   1.487       .  S
C532        O545   1.261       .  A
O533        C543   1.264       .  A
O533       Al535   1.914       .  S
O534        C547   1.258       .  A
O534       Al544   1.884       .  S
Al535       O548   1.921       .  S
Al535       O545   1.919       .  S
Al535       O540   1.783       .  S
O536        C543   1.261       .  A
O536       Al544   1.893       .  S
O537        C546   1.257       .  A
O537       Al544   1.898       .  S
O538       Al544   1.880       .  S
O539        C546   1.257       .  A
O540       Al544   1.773       .  S
O541        C542   1.264       .  A
C542       C1013   1.481       .  S
C543        C962   1.476       .  S
C546        C946   1.478       .  S
C547        C997   1.485       .  S
C547        O548   1.266       .  A
C549        N554   1.360       .  A
C549        C917   1.478       .  S
N550        C551   1.354       .  A
C551        C981   1.468       .  S
N552        C553   1.356       .  A
C553        N554   1.354       .  A
C553        C965   1.467       .  S
C555        N556   1.363       .  A
C555        N560   1.358       .  A
C555        C949   1.480       .  S
N556        C557   1.362       .  A
C557        N558   1.357   1_545  A
C557        C898   1.478   1_545  S
N558        C559   1.353   1_565  A
C559        N560   1.351       .  A
C559        C882   1.467   1_545  S
O561        C576   1.260       .  A
O561       Al569   1.896       .  S
C562        C914   1.484       .  S
C562        O563   1.259       .  A
O563       Al565   1.900       .  S
O564        C566   1.261       .  A
O564       Al565   1.895       .  S
Al565       O573   1.901       .  S
Al565       O575   1.898       .  S
Al565       O574   1.785       .  S
C566        C850   1.488       .  S
C566        O579   1.259       .  A
O567        C577   1.258       .  A
O568        C581   1.258       .  A
O568       Al578   1.881       .  S
Al569       O579   1.906       .  S
Al569       O574   1.791       .  S
O570        C577   1.262       .  A
O570       Al578   1.908       .  S
O571       Al578   1.911       .  S
O572       Al578   1.886       .  S
O573        C580   1.260       .  A
O575        C576   1.260       .  A
C576        C885   1.462       .  S
C577        C869   1.477       .  S
C580        C834   1.477       .  S
C581        C901   1.469       .  S
C581        O582   1.262       .  A
C583        N584   1.356       .  A
C583        N588   1.356       .  A
C583        C821   1.468       .  S
N584        C585   1.359       .  A
C585        N586   1.358   1_455  A
C585        C853   1.493   1_455  S
N586        C587   1.359   1_655  A
C587        N588   1.356       .  A
C587        C866   1.477   1_455  S
C589        N590   1.365       .  A
C589        N594   1.359       .  A
C589        C802   1.485       .  S
N590        C591   1.362       .  A
C591        N592   1.355       .  A
C591        C770   1.492       .  S
N592        C593   1.352       .  A
C593        N594   1.354       .  A
C593        C786   1.473       .  S
O595        C610   1.260       .  A
C596       C1029   1.469       .  S
C596        O606   1.259       .  A
O597       Al599   1.901       .  S
O598        C600   1.259       .  A
O598       Al599   1.878       .  S
Al599       O607   1.880       .  S
Al599       O609   1.901       .  S
C600        C789   1.474       .  S
C600        O613   1.265       .  A
O601        C611   1.263       .  A
O601       Al603   1.914       .  S
O602        C615   1.260       .  A
O602       Al612   1.886       .  S
Al603       O616   1.911       .  S
Al603       O608   1.781       .  S
O604        C611   1.262       .  A
O604       Al612   1.908       .  S
O605        C614   1.261       .  A
O605       Al612   1.911       .  S
O606       Al612   1.889       .  S
O608       Al612   1.775       .  S
O609        C610   1.262       .  A
C610        C754   1.479       .  S
C611        C773   1.476       .  S
C614        C722   1.471       .  S
C615        C741   1.484       .  S
C615        O616   1.262       .  A
C617        N618   1.360       .  A
C617        N622   1.358       .  A
C617        C930   1.480   1_455  S
N618        C619   1.356       .  A
C619        N620   1.352       .  A
C619        C757   1.482       .  S
N620        C621   1.353       .  A
C621        N622   1.356       .  A
C621        C738   1.474       .  S
C623        N624   1.360       .  A
C623        C725   1.481       .  S
N624        C625   1.355       .  A
C625        N626   1.355       .  A
C625        C706   1.469       .  S
C627        N628   1.356       .  A
C627        C690   1.468       .  S
O629        C644   1.258       .  A
O629       Al637   1.900       .  S
C630        C805   1.490       .  S
C630        O640   1.263       .  A
C630        O631   1.263       .  A
O631       Al633   1.922       .  S
O632        C634   1.259       .  A
O632       Al633   1.885       .  S
Al633       O641   1.890       .  S
Al633       O643   1.895       .  S
Al633       O642   1.786       .  S
C634        C674   1.463       .  S
C634        O647   1.263       .  A
O635        C645   1.259       .  A
O635       Al637   1.904       .  S
O636        C649   1.260       .  A
O636       Al646   1.881       .  S
Al637       O650   1.917       .  S
Al637       O647   1.909       .  S
Al637       O642   1.791       .  S
O638        C645   1.258       .  A
O638       Al646   1.903       .  S
O639        C648   1.260       .  A
O639       Al646   1.910       .  S
O640       Al646   1.894       .  S
O641        C648   1.258       .  A
O642       Al646   1.782       .  S
O643        C644   1.257       .  A
C644        C709   1.471       .  S
C645        C658   1.480       .  S
C648        C818   1.480       .  S
C649        C693   1.473       .  S
C649        O650   1.265       .  A
C651        N652   1.356       .  A
C651        C837   1.484       .  S
N652        C653   1.354       .  A
C653        N654   1.354       .  A
C653        C677   1.478       .  S
C655        N656   1.361       .  A
C655        C661   1.483       .  S
C657        C658   1.404       .  A
C657        C662   1.407       .  A
C657        H664   1.084       .  S
C658        C659   1.413       .  A
C659        C660   1.405       .  A
C659        C666   1.508       .  S
C660        C661   1.405       .  A
C660        H665   1.084       .  S
C661        C662   1.415       .  A
C662        C663   1.507       .  S
C663        H667   1.111       .  S
C663        H668   1.111       .  S
C663        H669   1.110       .  S
C666        H670   1.109       .  S
C666        H671   1.111       .  S
C666        H672   1.111       .  S
C673        C674   1.399       .  A
C673        C678   1.405       .  A
C673        H680   1.084       .  S
C674        C675   1.409       .  A
C675        C676   1.397       .  A
C675        C682   1.509       .  S
C676        C677   1.405       .  A
C676        H681   1.084       .  S
C677        C678   1.417       .  A
C678        C679   1.507       .  S
C679        H683   1.111       .  S
C679        H684   1.110       .  S
C679        H685   1.107       .  S
C682        H686   1.110       .  S
C682        H687   1.109       .  S
C682        H688   1.111       .  S
C689        C690   1.401       .  A
C689        C694   1.402       .  A
C689        H696   1.084       .  S
C690        C691   1.410       .  A
C691        C692   1.402       .  A
C691        C698   1.507       .  S
C692        C693   1.404       .  A
C692        H697   1.084       .  S
C693        C694   1.415       .  A
C694        C695   1.509       .  S
C695        H699   1.111       .  S
C695        H700   1.111       .  S
C695        H701   1.109       .  S
C698        H702   1.111       .  S
C698        H703   1.109       .  S
C698        H704   1.111       .  S
C705        C706   1.400       .  A
C705        C710   1.402       .  A
C705        H712   1.084       .  S
C706        C707   1.410       .  A
C707        C708   1.403       .  A
C707        C714   1.506       .  S
C708        C709   1.402       .  A
C708        H713   1.084       .  S
C709        C710   1.412       .  A
C710        C711   1.505       .  S
C711        H715   1.111       .  S
C711        H716   1.109       .  S
C711        H717   1.110       .  S
C714        H718   1.107       .  S
C714        H719   1.110       .  S
C714        H720   1.111       .  S
C721        C726   1.401       .  A
C721        H728   1.084       .  S
C722        C723   1.411       .  A
C723        C724   1.400       .  A
C723        C730   1.508       .  S
C724        C725   1.404       .  A
C724        H729   1.084       .  S
C726        C727   1.508       .  S
C727        H731   1.111       .  S
C727        H732   1.110       .  S
C727        H733   1.110       .  S
C730        H734   1.109       .  S
C730        H735   1.111       .  S
C730        H736   1.111       .  S
C737        C738   1.402       .  A
C737        C742   1.402       .  A
C737        H744   1.084       .  S
C738        C739   1.412       .  A
C739        C740   1.398       .  A
C739        C746   1.509       .  S
C740        C741   1.407       .  A
C740        H745   1.083       .  S
C741        C742   1.420       .  A
C742        C743   1.509       .  S
C743        H747   1.111       .  S
C743        H748   1.109       .  S
C743        H749   1.110       .  S
C746        H750   1.107       .  S
C746        H751   1.110       .  S
C746        H752   1.111       .  S
C753        C754   1.403       .  A
C753        C758   1.397       .  A
C753        H760   1.085       .  S
C754        C755   1.414       .  A
C755        C756   1.405       .  A
C755        C762   1.507       .  S
C756        C757   1.407       .  A
C756        H761   1.084       .  S
C757        C758   1.419       .  A
C758        C759   1.512       .  S
C759        H763   1.109       .  S
C759        H764   1.110       .  S
C759        H765   1.111       .  S
C762        H766   1.110       .  S
C762        H767   1.109       .  S
C762        H768   1.111       .  S
C769        C770   1.408       .  A
C769        C774   1.400       .  A
C769        H776   1.084       .  S
C770        C771   1.420       .  A
C771        C772   1.411       .  A
C771        C778   1.506       .  S
C772        C773   1.402       .  A
C772        H777   1.084       .  S
C773        C774   1.412       .  A
C774        C775   1.511       .  S
C775        H779   1.111       .  S
C775        H780   1.110       .  S
C775        H781   1.109       .  S
C778        H782   1.110       .  S
C778        H783   1.110       .  S
C778        H784   1.111       .  S
C785        C786   1.404       .  A
C785        C790   1.407       .  A
C785        H792   1.084       .  S
C786        C787   1.413       .  A
C787        C788   1.396       .  A
C787        C794   1.510       .  S
C788        C789   1.403       .  A
C788        H793   1.084       .  S
C789        C790   1.413       .  A
C790        C791   1.507       .  S
C791        H795   1.111       .  S
C791        H796   1.109       .  S
C791        H797   1.111       .  S
C794        H798   1.109       .  S
C794        H799   1.110       .  S
C794        H800   1.111       .  S
C801        C802   1.403       .  A
C801        C806   1.406   1_545  A
C801        H808   1.084       .  S
C802        C803   1.417       .  A
C803        C804   1.402   1_545  A
C803        C810   1.509       .  S
C804        C805   1.404       .  A
C804        H809   1.084       .  S
C805        C806   1.421       .  A
C806        C807   1.509       .  S
C807        H811   1.111       .  S
C807        H812   1.110       .  S
C807        H813   1.110       .  S
C810        H814   1.109       .  S
C810        H815   1.110       .  S
C810        H816   1.111       .  S
C817        C818   1.406       .  A
C817        C822   1.402       .  A
C817        H824   1.081       .  S
C818        C819   1.417       .  A
C819        C820   1.400       .  A
C819        C826   1.509       .  S
C820        C821   1.400       .  A
C820        H825   1.085       .  S
C821        C822   1.409       .  A
C822        C823   1.507       .  S
C823        H827   1.111       .  S
C823        H828   1.109       .  S
C823        H829   1.110       .  S
C826        H830   1.110       .  S
C826        H831   1.109       .  S
C826        H832   1.111       .  S
C833        C838   1.405       .  A
C833        H840   1.084       .  S
C834        C835   1.411       .  A
C835        C836   1.400       .  A
C835        C842   1.499       .  S
C836        C837   1.400       .  A
C836        H841   1.084       .  S
C838        C839   1.508       .  S
C839        H843   1.111       .  S
C839        H844   1.110       .  S
C842        H847   1.111       .  S
C842        H848   1.111       .  S
C849        C850   1.405       .  A
C849        C854   1.403       .  A
C849        H856   1.084       .  S
C850        C851   1.419       .  A
C851        C852   1.403   1_655  A
C851        C858   1.510       .  S
C852        C853   1.407   1_455  A
C852        H857   1.083       .  S
C853        C854   1.419       .  A
C854        C855   1.507       .  S
C855        H859   1.111       .  S
C855        H860   1.109       .  S
C855        H861   1.110       .  S
C858        H862   1.110       .  S
C858        H863   1.110       .  S
C858        H864   1.111   1_655  S
C865        C866   1.405   1_455  A
C865        C870   1.403   1_455  A
C865        H872   1.084       .  S
C866        C867   1.413       .  A
C867        C868   1.399       .  A
C867        C874   1.506       .  S
C868        C869   1.403       .  A
C868        H873   1.085       .  S
C869        C870   1.416       .  A
C870        C871   1.508   1_655  S
C871        H875   1.111       .  S
C871        H876   1.110       .  S
C871        H877   1.108   1_455  S
C874        H878   1.108       .  S
C874        H879   1.110       .  S
C874        H880   1.111       .  S
C881        C882   1.402       .  A
C881        C886   1.401       .  A
C881        H888   1.084       .  S
C882        C883   1.411       .  A
C883        C884   1.402       .  A
C883        C890   1.507       .  S
C884        C885   1.401       .  A
C884        H889   1.085       .  S
C885        C886   1.409       .  A
C886        C887   1.507       .  S
C887        H891   1.111       .  S
C887        H892   1.110       .  S
C887        H893   1.110       .  S
C890        H894   1.109       .  S
C890        H895   1.110   1_565  S
C890        H896   1.111       .  S
C897        C898   1.405       .  A
C897        C902   1.403       .  A
C897        H904   1.084       .  S
C898        C899   1.414       .  A
C899        C900   1.398       .  A
C899        C906   1.501       .  S
C900        C901   1.397       .  A
C900        H905   1.082       .  S
C901        C902   1.412       .  A
C902        C903   1.507       .  S
C903        H907   1.111       .  S
C903        H908   1.111       .  S
C903        H909   1.108       .  S
C906        H910   1.110       .  S
C906        H911   1.101   1_565  S
C906        H912   1.111       .  S
C913        C914   1.407       .  A
C913        C918   1.404       .  A
C913        H920   1.084       .  S
C914        C915   1.419       .  A
C915        C916   1.400       .  A
C915        C922   1.510       .  S
C916        C917   1.401       .  A
C916        H921   1.084       .  S
C917        C918   1.415       .  A
C918        C919   1.507       .  S
C919        H923   1.111       .  S
C919        H925   1.111       .  S
C922        H927   1.110       .  S
C922        H928   1.111       .  S
C929        C930   1.404       .  A
C929        C934   1.399       .  A
C929        H936   1.084       .  S
C930        C931   1.416       .  A
C931        C932   1.401       .  A
C931        C938   1.509       .  S
C932        C933   1.405       .  A
C932        H937   1.084       .  S
C933        C934   1.417       .  A
C934        C935   1.510       .  S
C935        H939   1.111       .  S
C935        H940   1.111       .  S
C935        H941   1.110       .  S
C938        H942   1.109       .  S
C938        H943   1.110       .  S
C938        H944   1.111       .  S
C945        C946   1.402       .  A
C945        C950   1.399       .  A
C945        H952   1.084       .  S
C946        C947   1.418       .  A
C947        C948   1.400       .  A
C947        C954   1.510       .  S
C948        C949   1.403       .  A
C948        H953   1.084       .  S
C949        C950   1.413       .  A
C950        C951   1.499       .  S
C951        H955   1.111       .  S
C951        H956   1.106       .  S
C951        H957   1.110       .  S
C954        H958   1.111       .  S
C954        H959   1.111       .  S
C954        H960   1.110       .  S
C961        C962   1.404       .  A
C961        C966   1.395       .  A
C961        H968   1.085       .  S
C962        C963   1.413       .  A
C963        C964   1.409       .  A
C963        C970   1.506       .  S
C964        C965   1.404       .  A
C964        H969   1.084       .  S
C965        C966   1.410       .  A
C966        C967   1.509       .  S
C967        H971   1.111       .  S
C967        H972   1.108       .  S
C967        H973   1.110       .  S
C970        H974   1.110       .  S
C970        H975   1.111       .  S
C970        H976   1.111       .  S
C977        C978   1.409       .  A
C977        C982   1.398       .  A
C977        H984   1.084       .  S
C978        C979   1.421       .  A
C979        C980   1.405       .  A
C979        C986   1.508       .  S
C980        C981   1.399       .  A
C980        H985   1.084       .  S
C981        C982   1.409       .  A
C982        C983   1.509       .  S
C983        H987   1.111       .  S
C983        H988   1.109       .  S
C983        H989   1.111       .  S
C986        H990   1.110       .  S
C986        H991   1.111       .  S
C986        H992   1.111       .  S
C993        C994   1.402       .  A
C993        C998   1.399       .  A
C993       H1000   1.083       .  S
C994        C995   1.417       .  A
C995        C996   1.402       .  A
C995       C1002   1.507       .  S
C996        C997   1.406       .  A
C996       H1001   1.084       .  S
C997        C998   1.419       .  A
C998        C999   1.510       .  S
C999       H1003   1.111       .  S
C999       H1004   1.110       .  S
C999       H1005   1.110       .  S
C1002      H1006   1.110       .  S
C1002      H1007   1.109       .  S
C1002      H1008   1.111       .  S
C1009      C1010   1.406       .  A
C1009      C1014   1.402       .  A
C1009      H1016   1.076       .  S
C1010      C1011   1.415       .  A
C1011      C1012   1.403       .  A
C1011      C1018   1.507       .  S
C1012      C1013   1.406       .  A
C1012      H1017   1.084       .  S
C1013      C1014   1.413       .  A
C1014      C1015   1.509       .  S
C1015      H1019   1.111       .  S
C1015      H1020   1.110       .  S
C1015      H1021   1.110       .  S
C1018      H1022   1.110       .  S
C1018      H1023   1.111       .  S
C1018      H1024   1.105       .  S
C1025      C1030   1.411       .  A
C1025      H1032   1.084       .  S
C1026      C1027   1.420       .  A
C1027      C1028   1.400       .  A
C1027      C1034   1.510       .  S
C1028      C1029   1.402       .  A
C1028      H1033   1.085       .  S
C1030      C1031   1.507       .  S
C1031      H1035   1.111       .  S
C1031      H1036   1.111       .  S
C1034      H1039   1.109       .  S
C1034      H1040   1.111       .  S
