geometry optimzed in LAMMPS
_audit_creation_date              2020-11-30 
_audit_creation_method            'lammps2cif' 
_symmetry_space_group_name_H-M    'P1' 
_symmetry_Int_Tables_number       1 
_symmetry_cell_setting            triclinic 
loop_ 
_symmetry_equiv_pos_as_xyz 
  x,y,z 
_cell_length_a                    34.95428715 
_cell_length_b                    35.04514269298196 
_cell_length_c                    61.28430338289063 
_cell_angle_alpha                 89.7914798223197 
_cell_angle_beta                  89.96868674406693 
_cell_angle_gamma                 120.63014401709925 
loop_ 
_atom_site_label 
_atom_site_type_symbol 
_atom_site_fract_x 
_atom_site_fract_y 
_atom_site_fract_z 
_atom_site_charge 
C1          C  0.05574574  0.42627221  0.90054239     0.86400
C2          C  0.02104070  0.38388932  0.91236575    -0.53800
C3          C  0.03882288  0.36126746  0.92241387     0.09300
C4          C  0.08998160  0.38422106  0.91987491     0.20300
C5          C  0.09020145  0.45369145  0.91818971    -0.54500
C6          C  0.10788620  0.43142272  0.92867410     0.09500
C7          C  0.07841533  0.40939910  0.88544245    -0.54100
C8          C  0.09821533  0.38934187  0.89537164     0.10000
H9          H  0.98588855  0.37295291  0.91269415     0.14500
H10         H  0.10573088  0.36705995  0.92738511     0.00300
H11         H  0.09873739  0.48724055  0.92222411     0.14800
H12         H  0.06832014  0.40242398  0.86879145     0.14600
C13         C  0.37622355  0.44158006  0.89817908     0.86400
C14         C  0.37398622  0.47515046  0.91336683    -0.53800
C15         C  0.33470716  0.45721630  0.92451594     0.09300
C16         C  0.30207930  0.40791037  0.91980477     0.20300
C17         C  0.36790015  0.40272066  0.91306580    -0.54500
C18         C  0.32968821  0.38583042  0.92503394     0.09500
C19         C  0.33494206  0.42480261  0.88403865    -0.54100
C20         C  0.29583912  0.40504857  0.89503587     0.10000
H21         H  0.40154580  0.50851583  0.91621488     0.14500
H22         H  0.27044817  0.39485858  0.92898896     0.00300
H23         H  0.39079925  0.39059974  0.91416963     0.14800
H24         H  0.33687618  0.43396067  0.86719637     0.14600
C25         C  0.06629194  0.12248580  0.90135654     0.86400
C26         C  0.10381022  0.12562904  0.91571136    -0.53800
C27         C  0.12541420  0.16371453  0.92762631     0.09300
C28         C  0.10683034  0.19549034  0.92408841     0.20300
C29         C  0.03560861  0.12832542  0.91745938    -0.54500
C30         C  0.05653535  0.16611599  0.93002786     0.09500
C31         C  0.08896734  0.16476239  0.88797841    -0.54100
C32         C  0.10882761  0.20329486  0.89896921     0.10000
H33         H  0.11164170  0.09942756  0.91699220     0.14500
H34         H  0.12417166  0.22693738  0.93294683     0.00300
H35         H  0.00080608  0.10317542  0.91952047     0.14800
H36         H  0.09336369  0.16416424  0.86977653     0.14600
O37         O  0.10319061  0.26831902  0.83008186    -0.81900
C38         C  0.25340191  0.38035230  0.88306662     0.97500
O39         O  0.24550891  0.34552706  0.87304796    -0.71000
O40         O  0.16926568  0.27078417  0.88357171    -0.74600
Al41       Al  0.19623392  0.30132332  0.85627409     1.49000
C42         C  0.12772890  0.24578669  0.88614614     0.92700
O43         O  0.10510002  0.32942827  0.88201243    -0.80800
O44         O  0.16843266  0.38972611  0.82746722    -0.74400
Al45       Al  0.10754737  0.30037564  0.85615698     1.90100
O46         O  0.15390299  0.39679739  0.87098821    -0.73400
O47         O  0.24536636  0.39583627  0.83673334    -0.73300
O48         O  0.22855360  0.39647127  0.88057578    -0.78900
O49         O  0.22667429  0.32746964  0.82923717    -0.77100
O50         O  0.16678806  0.33038849  0.85565628    -1.13300
O51         O  0.15346181  0.25141809  0.83922224    -0.72500
C52         C  0.12067788  0.24473435  0.82755881     0.98300
C53         C  0.12083958  0.37079821  0.88268957     0.94700
Al54       Al  0.19642634  0.38955867  0.85411477     1.55600
O55         O  0.10128729  0.25223527  0.87467153    -0.77100
C56         C  0.25141712  0.36870012  0.82591646     0.98800
C57         C  0.12706783  0.37403880  0.82593265     0.93700
O58         O  0.10045232  0.34167827  0.83789341    -0.82400
C59         C  0.23496890  0.50280645  0.99940353     0.02200
C60         C  0.27713875  0.50667470  0.00060803     0.02200
C61         C  0.29253667  0.00979952  0.02181730    -0.18300
C62         C  0.27075683  0.00789403  0.04140348     0.02200
C63         C  0.22676641  0.00039901  0.04013398     0.02200
C64         C  0.20633570  0.99451474  0.01983322    -0.18300
H65         H  0.17241123  0.98775560  0.01906326     0.04200
H66         H  0.32666425  0.01735466  0.02217323     0.04200
C67         C  0.12700050  0.05624705  0.14431333     0.86400
C68         C  0.13999783  0.09730814  0.12976853    -0.53800
C69         C  0.17988254  0.11305182  0.11911851     0.09300
C70         C  0.20304443  0.08681738  0.12451306     0.20300
C71         C  0.12794728  0.02243195  0.12897089    -0.54500
C72         C  0.16782385  0.03822457  0.11863358     0.09500
C73         C  0.16672278  0.06972235  0.15935852    -0.54100
C74         C  0.20692403  0.08802977  0.14944225     0.10000
H75         H  0.11866162  0.11106514  0.12725211     0.14500
H76         H  0.23494380  0.09891462  0.11586567     0.00300
H77         H  0.09877535  0.99062793  0.12516796     0.14800
H78         H  0.16278108  0.06164102  0.17632807     0.14600
C79         C  0.43378609  0.37430256  0.14324752     0.86400
C80         C  0.45951210  0.36751967  0.12445523    -0.53800
C81         C  0.43414768  0.32816260  0.11321063     0.09300
C82         C  0.38584959  0.30008274  0.12219402     0.20300
C83         C  0.39241397  0.37019923  0.13199484    -0.54500
C84         C  0.36777060  0.33197233  0.12061743     0.09500
C85         C  0.41752513  0.33265740  0.15701509    -0.54100
C86         C  0.39103482  0.29371499  0.14674450     0.10000
H87         H  0.49325969  0.39220238  0.11993446     0.14500
H88         H  0.36519012  0.26850183  0.11345804     0.00300
H89         H  0.38631929  0.39761316  0.13095174     0.14800
H90         H  0.43046434  0.33384641  0.17307881     0.14600
C91         C  0.43597193  0.06207867  0.14403853     0.86400
C92         C  0.39688347  0.03244290  0.12909695    -0.53800
C93         C  0.37811969  0.05453737  0.11952491     0.09300
C94         C  0.40106979  0.10406253  0.12582252     0.20300
C95         C  0.46879865  0.10133727  0.12948120    -0.54500
C96         C  0.45018226  0.12309407  0.11969928     0.09500
C97         C  0.41588845  0.08075104  0.15988198    -0.54100
C98         C  0.40013161  0.10527763  0.15060118     0.10000
H99         H  0.38568710  0.99778494  0.12615791     0.14500
H100        H  0.38559184  0.12127925  0.11816577     0.00300
H101        H  0.50314130  0.11034128  0.12703302     0.14800
H102        H  0.40831195  0.06899520  0.17641966     0.14600
O103        O  0.25925373  0.10215485  0.21050302    -0.81900
C104        C  0.37268569  0.25162682  0.15949778     0.97500
O105        O  0.33132665  0.22619699  0.16196684    -0.71000
O106        O  0.25590476  0.14973040  0.17111043    -0.74600
Al107      Al  0.30301347  0.19485751  0.18871844     1.49000
C108        C  0.24816337  0.11366203  0.16250841     0.92700
O109        O  0.34794285  0.10103574  0.17588411    -0.80800
O110        O  0.40391782  0.16232591  0.20829099    -0.74400
Al111      Al  0.30681775  0.10832657  0.19295284     1.90100
O112        O  0.39693482  0.16794895  0.16423932    -0.73400
O113        O  0.39778340  0.23404144  0.21519084    -0.73300
O114        O  0.39927475  0.24551203  0.17072004    -0.78900
O115        O  0.34279160  0.24445639  0.20654590    -0.77100
O116        O  0.33450713  0.16757504  0.19040828    -1.13300
O117        O  0.27018047  0.16883474  0.21506811    -0.72500
C118        C  0.24902789  0.12803899  0.21950223     0.98300
C119        C  0.38013757  0.12610355  0.16371804     0.94700
Al120      Al  0.39403016  0.19958071  0.18962684     1.55600
O121        O  0.27216218  0.09740746  0.16699671    -0.77100
C122        C  0.37685793  0.25446989  0.21796269     0.98800
C123        C  0.37974670  0.12895918  0.21997604     0.93700
O124        O  0.33784376  0.11049052  0.21910324    -0.82400
C125        C  0.97188150  0.20560612  0.00118194     0.02200
C126        C  0.97517177  0.24746890  0.99743092     0.02200
C127        C  0.97346330  0.27135615  0.01556505    -0.18300
C128        C  0.46860763  0.25228435  0.03657093     0.02200
C129        C  0.46438175  0.21017670  0.03970273     0.02200
C130        C  0.46220326  0.18524795  0.02126433    -0.18300
H131        H  0.45950661  0.15327762  0.02361353     0.04200
H132        H  0.97721314  0.30370332  0.01317935     0.04200
C133        C  0.27058617  0.27200766  0.00157943     0.02200
C134        C  0.24179996  0.22488372  0.00115049     0.02200
C135        C  0.23168628  0.20207424  0.02125271    -0.18300
C136        C  0.24445343  0.22395323  0.04148049     0.02200
C137        C  0.27188543  0.27124647  0.04193560     0.02200
C138        C  0.28440697  0.29388967  0.02176283    -0.18300
H139        H  0.30444332  0.32975383  0.02158666     0.04200
H140        H  0.21227867  0.16616544  0.02128550     0.04200
C141        C  0.46298936  0.22895744  0.47956811     0.86400
C142        C  0.47309218  0.27018831  0.46600789    -0.53800
C143        C  0.01313931  0.28823769  0.45339442     0.09300
C144        C  0.03783481  0.26263185  0.45697844     0.20300
C145        C  0.46304731  0.19613498  0.46299569    -0.54500
C146        C  0.00349754  0.21435369  0.45091422     0.09500
C147        C  0.00450992  0.24275721  0.49267903    -0.54100
C148        C  0.04373500  0.26207226  0.48173437     0.10000
H149        H  0.45098805  0.28343765  0.46551637     0.14500
H150        H  0.06874703  0.27445687  0.44770465     0.00300
H151        H  0.43511676  0.16290649  0.46031220     0.14800
H152        H  0.00241241  0.23443925  0.50967664     0.14600
C153        C  0.28582072  0.24763485  0.47815802     0.86400
C154        C  0.24866704  0.21603053  0.46260915    -0.53800
C155        C  0.22728465  0.23435332  0.45230645     0.09300
C156        C  0.24499157  0.28296693  0.45908252     0.20300
C157        C  0.31712344  0.28841060  0.46397217    -0.54500
C158        C  0.29557030  0.30776478  0.45406166     0.09500
C159        C  0.26485399  0.26587377  0.49365630    -0.54100
C160        C  0.24221407  0.28322527  0.48403347     0.10000
H161        H  0.24049974  0.18208894  0.45991886     0.14500
H162        H  0.22697136  0.29683848  0.45096298     0.00300
H163        H  0.35241005  0.30071248  0.46230561     0.14800
H164        H  0.27337410  0.27062911  0.51064685     0.14600
C165        C  0.26816364  0.04684587  0.47706162     0.86400
C166        C  0.29162253  0.04221846  0.45689474    -0.53800
C167        C  0.26941207  0.50219190  0.44641796     0.09300
C168        C  0.22291723  0.47125324  0.45730197     0.20300
C169        C  0.22319358  0.03842982  0.46844711    -0.54500
C170        C  0.20067147  0.49956939  0.45770016     0.09500
C171        C  0.25927230  0.50602086  0.49101419    -0.54100
C172        C  0.23266127  0.46625613  0.48135630     0.10000
H173        H  0.32402190  0.06878058  0.45161442     0.14500
H174        H  0.20165984  0.43867589  0.44985851     0.00300
H175        H  0.21459405  0.06415875  0.46781883     0.14800
H176        H  0.27528511  0.50867363  0.50637649     0.14600
O177        O  0.09091770  0.27150000  0.54171039    -0.81900
C178        C  0.21286558  0.42441898  0.49457783     0.97500
O179        O  0.17121572  0.39796611  0.49509694    -0.71000
O180        O  0.09315501  0.32287999  0.50326134    -0.74600
Al181      Al  0.13963211  0.36645902  0.52132275     1.49000
C182        C  0.08563148  0.28754733  0.49404267     0.92700
O183        O  0.18490376  0.27375292  0.50797196    -0.80800
O184        O  0.23479762  0.32783938  0.54366869    -0.74400
Al185      Al  0.14071330  0.27859664  0.52471142     1.90100
O186        O  0.23626067  0.34242259  0.49979318    -0.73400
O187        O  0.22694811  0.39906039  0.55165072    -0.73300
O188        O  0.23756081  0.41859914  0.50755569    -0.78900
O189        O  0.17835576  0.41590132  0.53945944    -0.77100
O190        O  0.16955384  0.33796554  0.52374141    -1.13300
O191        O  0.10567013  0.33953996  0.54710665    -0.72500
C192        C  0.08313533  0.29859466  0.55149527     0.98300
C193        C  0.21931307  0.30099549  0.49734197     0.94700
Al194      Al  0.22869482  0.36926150  0.52555797     1.55600
O195        O  0.10978962  0.27126444  0.49788902    -0.77100
C196        C  0.20927543  0.42295279  0.55250200     0.98800
C197        C  0.20803903  0.29364470  0.55439303     0.93700
O198        O  0.16679219  0.27653271  0.55174764    -0.82400
C199        C  0.20697887  0.10733353  0.23292519     0.86400
C200        C  0.19596693  0.13638124  0.24727907    -0.53800
C201        C  0.15509550  0.11261102  0.25747928     0.09300
C202        C  0.13022729  0.06207905  0.25213588     0.20300
C203        C  0.20327387  0.07086642  0.24840589    -0.54500
C204        C  0.16325748  0.04773078  0.25864132     0.09500
C205        C  0.16729523  0.08549310  0.21761154    -0.54100
C206        C  0.12719564  0.05956031  0.22731001     0.10000
H207        H  0.21853134  0.17167501  0.24941793     0.14500
H208        H  0.09769311  0.04120873  0.26026388     0.00300
H209        H  0.23164469  0.06784330  0.25298854     0.14800
H210        H  0.16939633  0.10018975  0.20188056     0.14600
C211        C  0.39420337  0.29483971  0.23292446     0.86400
C212        C  0.43708187  0.30879941  0.24650948    -0.53800
C213        C  0.45163886  0.34722107  0.25851803     0.09300
C214        C  0.42295749  0.36858846  0.25428178     0.20300
C215        C  0.36064769  0.29290223  0.24991476    -0.54500
C216        C  0.37593100  0.33166240  0.26122576     0.09500
C217        C  0.40532628  0.33519638  0.21887943    -0.54100
C218        C  0.42211366  0.37414815  0.22944720     0.10000
H219        H  0.45261768  0.28885000  0.24712294     0.14500
H220        H  0.43286283  0.39987974  0.26266003     0.00300
H221        H  0.32946839  0.26289130  0.25374616     0.14800
H222        H  0.40006379  0.33320114  0.20161273     0.14600
C223        C  0.40224798  0.10876928  0.23252883     0.86400
C224        C  0.37050097  0.06370689  0.24352377    -0.53800
C225        C  0.39174899  0.04545020  0.25434916     0.09300
C226        C  0.44276358  0.07304350  0.25159402     0.20300
C227        C  0.43361699  0.13775501  0.25064131    -0.54500
C228        C  0.45515512  0.11904380  0.26046699     0.09500
C229        C  0.43198643  0.09994639  0.21748871    -0.54100
C230        C  0.45133390  0.07891827  0.22699060     0.10000
H231        H  0.33473322  0.04879467  0.24316831     0.14500
H232        H  0.46191593  0.06007298  0.25979327     0.00300
H233        H  0.43624158  0.16842608  0.25614572     0.14800
H234        H  0.43943389  0.11221127  0.20103167     0.14600
O235        O  0.43141708  0.42471081  0.16888529    -0.81900
C236        C  0.08565987  0.04054013  0.21447340     0.97500
O237        O  0.05832692  0.99909443  0.21401598    -0.71000
O238        O  0.98191186  0.42355511  0.20598063    -0.74600
Al239      Al  0.02622338  0.46938617  0.18772867     1.49000
C240        C  0.44775070  0.41587707  0.21653387     0.92700
O241        O  0.43839092  0.01885976  0.20420940    -0.80800
O242        O  0.49314472  0.06704003  0.16663263    -0.74400
Al243      Al  0.44086464  0.47430544  0.18657455     1.90100
O244        O  0.50805883  0.06990624  0.21014940    -0.73400
O245        O  0.06313543  0.05853303  0.15838560    -0.73300
O246        O  0.08063113  0.06648078  0.20211784    -0.78900
O247        O  0.07483046  0.00621996  0.17007457    -0.77100
O248        O  0.99947339  0.00208757  0.18655078    -1.13300
O249        O  0.49748006  0.43464427  0.16190845    -0.72500
C250        C  0.45621000  0.41477431  0.15812738     0.98300
C251        C  0.46704556  0.05423357  0.21355084     0.94700
Al252      Al  0.03354491  0.06122632  0.18434172     1.55600
O253        O  0.43309837  0.44175081  0.21338217    -0.77100
C254        C  0.08498521  0.03879684  0.15767942     0.98800
C255        C  0.45747914  0.04133987  0.15683831     0.93700
O256        O  0.43760923  0.00016622  0.16034094    -0.82400
C257        C  0.06089193  0.15039982  0.37970902     0.02200
C258        C  0.10577836  0.16101651  0.37799032     0.02200
C259        C  0.12144445  0.15829569  0.35709243    -0.18300
C260        C  0.09514453  0.14971971  0.33808576     0.02200
C261        C  0.05173158  0.14360405  0.34024206     0.02200
C262        C  0.03493967  0.14106584  0.36103222    -0.18300
H263        H  0.00290744  0.13831763  0.36286970     0.04200
H264        H  0.15481617  0.16429186  0.35553779     0.04200
C265        C  0.34081167  0.41492669  0.37746615     0.02200
C266        C  0.34183046  0.45507105  0.37280509     0.02200
C267        C  0.34679918  0.46961358  0.35111845    -0.18300
C268        C  0.34959963  0.44482121  0.33378839     0.02200
C269        C  0.34532527  0.40295351  0.33822766     0.02200
C270        C  0.34153974  0.38905805  0.36011719    -0.18300
H271        H  0.33798638  0.35712333  0.36376613     0.04200
H272        H  0.34736343  0.50024761  0.34765993     0.04200
C273        C  0.06243904  0.40785754  0.37859376     0.02200
C274        C  0.09777176  0.45350159  0.37964363     0.02200
C275        C  0.11128232  0.47752528  0.36014018    -0.18300
C276        C  0.09469664  0.45876315  0.33978978     0.02200
C277        C  0.05714674  0.41537661  0.33875913     0.02200
C278        C  0.04278559  0.39012445  0.35807112    -0.18300
H279        H  0.01704387  0.35586532  0.35675669     0.04200
H280        H  0.13595254  0.51173900  0.36067407     0.04200
C281        C  0.29275131  0.38634583  0.81171420     0.86400
C282        C  0.30391465  0.42700746  0.79686729    -0.53800
C283        C  0.34329917  0.44346484  0.78532922     0.09300
C284        C  0.36775281  0.41835759  0.79076270     0.20300
C285        C  0.29399905  0.35285683  0.79622245    -0.54500
C286        C  0.33331009  0.36971227  0.78527190     0.09500
C287        C  0.33357268  0.40148247  0.82613517    -0.54100
C288        C  0.37314315  0.42080571  0.81555090     0.10000
H289        H  0.28205245  0.44035334  0.79551502     0.14500
H290        H  0.39959724  0.42959591  0.78231171     0.00300
H291        H  0.26535641  0.32048414  0.79273119     0.14800
H292        H  0.33090100  0.39280192  0.84306384     0.14600
C293        C  0.09906073  0.20428799  0.81294275     0.86400
C294        C  0.13220970  0.19481955  0.80072271    -0.53800
C295        C  0.11228849  0.15587551  0.78909830     0.09300
C296        C  0.06134659  0.13023072  0.79112924     0.20300
C297        C  0.06745850  0.20277297  0.79512323    -0.54500
C298        C  0.04780595  0.16397812  0.78363658     0.09500
C299        C  0.07022801  0.16292681  0.82647656    -0.54100
C300        C  0.05269629  0.12401413  0.81582897     0.10000
H301        H  0.16790458  0.21753118  0.80088324     0.14500
H302        H  0.04376626  0.09899724  0.78182103     0.00300
H303        H  0.06203443  0.23001754  0.79150765     0.14800
H304        H  0.06161877  0.16441620  0.84393862     0.14600
C305        C  0.10952027  0.39805930  0.81245374     0.86400
C306        C  0.06830144  0.36808081  0.79827142    -0.53800
C307        C  0.05160295  0.39064754  0.78715413     0.09300
C308        C  0.07697104  0.44070505  0.79234870     0.20300
C309        C  0.14273244  0.43359911  0.79677460    -0.54500
C310        C  0.12577650  0.45608122  0.78632034     0.09500
C311        C  0.09553127  0.42366305  0.82731102    -0.54100
C312        C  0.07571208  0.44361820  0.81728341     0.10000
H313        H  0.05454752  0.33260571  0.79707256     0.14500
H314        H  0.06510866  0.46059150  0.78385258     0.00300
H315        H  0.17530169  0.43840990  0.79306955     0.14800
H316        H  0.10823785  0.43248981  0.84354214     0.14600
O317        O  0.42234097  0.43080469  0.87312151    -0.81900
C318        C  0.03661134  0.08239781  0.82840612     0.97500
O319        O  0.99546075  0.05560653  0.82998134    -0.71000
O320        O  0.42019344  0.98062526  0.83940103    -0.74600
Al321      Al  0.47042307  0.02525711  0.85638937     1.49000
C322        C  0.41558980  0.44674529  0.82771440     0.92700
O323        O  0.01672436  0.43279673  0.84077702    -0.80800
O324        O  0.06621490  0.48555187  0.87649559    -0.74400
Al325      Al  0.47223211  0.43716334  0.85623019     1.90100
O326        O  0.06665415  0.50145741  0.83235024    -0.73400
O327        O  0.05922866  0.05708392  0.88451704    -0.73300
O328        O  0.06394533  0.07723238  0.84002305    -0.78900
O329        O  0.01194934  0.07686885  0.87408846    -0.77100
O330        O  0.99937451  0.99757626  0.85709149    -1.13300
O331        O  0.44268685  0.49924903  0.88208549    -0.72500
C332        C  0.41688747  0.45818794  0.88428031     0.98300
C333        C  0.05118243  0.46035417  0.83020026     0.94700
Al334      Al  0.05823033  0.02810290  0.85803733     1.55600
O335        O  0.44253758  0.43297182  0.82925874    -0.77100
C336        C  0.04357849  0.08232108  0.88640838     0.98800
C337        C  0.03875251  0.45120246  0.88717090     0.93700
O338        O  0.99756909  0.43488258  0.88447500    -0.82400
C339        C  0.23005325  0.46501272  0.56610401     0.86400
C340        C  0.26812510  0.47103279  0.58105620    -0.53800
C341        C  0.29091532  0.01163759  0.59058325     0.09300
C342        C  0.27280954  0.04196246  0.58463688     0.20300
C343        C  0.20002939  0.47393457  0.58122563    -0.54500
C344        C  0.22323096  0.01468760  0.59118015     0.09500
C345        C  0.24905130  0.00442241  0.55037912    -0.54100
C346        C  0.27259216  0.04447933  0.55996366     0.10000
H347        H  0.27424665  0.44432606  0.58487290     0.14500
H348        H  0.29233329  0.07529159  0.59195766     0.00300
H349        H  0.16503367  0.45014747  0.58388910     0.14800
H350        H  0.23893768  0.00099309  0.53367334     0.14600
C351        C  0.04206709  0.28133226  0.56572832     0.86400
C352        C  0.04205130  0.31543053  0.58124125    -0.53800
C353        C  0.50060786  0.28633108  0.59515185     0.09300
C354        C  0.46908093  0.23722855  0.58840545     0.20300
C355        C  0.02978523  0.24032061  0.58050681    -0.54500
C356        C  0.49826396  0.21598781  0.59034639     0.09500
C357        C  0.50033993  0.26237365  0.55244905    -0.54100
C358        C  0.46173662  0.23944534  0.56376393     0.10000
H359        H  0.07127760  0.34747364  0.58461441     0.14500
H360        H  0.43777236  0.21951139  0.59796962     0.00300
H361        H  0.05071195  0.22588069  0.58152256     0.14800
H362        H  0.50091035  0.27204148  0.53571969     0.14600
C363        C  0.22637998  0.26984931  0.56743909     0.86400
C364        C  0.19535276  0.23522394  0.58424797    -0.53800
C365        C  0.21434554  0.21426552  0.59451518     0.09300
C366        C  0.26229979  0.22978210  0.58684540     0.20300
C367        C  0.26895690  0.30130068  0.58033839    -0.54500
C368        C  0.28743422  0.28017219  0.59105836     0.09500
C369        C  0.23954542  0.24388358  0.55221916    -0.54100
C370        C  0.26071554  0.22484128  0.56188935     0.10000
H371        H  0.16328702  0.23058327  0.58895097     0.14500
H372        H  0.27579997  0.21125574  0.59517232     0.00300
H373        H  0.28224248  0.33676635  0.58117760     0.14800
H374        H  0.22993822  0.23863622  0.53537098     0.14600
O375        O  0.27830809  0.11566551  0.49169877    -0.81900
C376        C  0.41938456  0.21596337  0.55154162     0.97500
O377        O  0.41263635  0.18356386  0.53979439    -0.71000
O378        O  0.33394515  0.11108534  0.54702680    -0.74600
Al379      Al  0.36451369  0.14267836  0.52143219     1.49000
C380        C  0.29226787  0.08573590  0.54729185     0.92700
O381        O  0.26823509  0.16788326  0.54456329    -0.80800
O382        O  0.34429646  0.24072902  0.49563487    -0.74400
Al383      Al  0.27731005  0.14373896  0.51830123     1.90100
O384        O  0.32207512  0.23671556  0.53955916    -0.73400
O385        O  0.41726742  0.23874883  0.50567894    -0.73300
O386        O  0.39459467  0.23225598  0.54977339    -0.78900
O387        O  0.39686841  0.17065335  0.49586735    -0.77100
O388        O  0.33614473  0.17295829  0.52084955    -1.13300
O389        O  0.32398869  0.09455436  0.50289799    -0.72500
C390        C  0.29275877  0.08915245  0.49050031     0.98300
C391        C  0.28551915  0.20871407  0.54856617     0.94700
Al392      Al  0.36695206  0.23206428  0.52257468     1.55600
O393        O  0.26738184  0.09304509  0.53516032    -0.77100
C394        C  0.42260117  0.21187155  0.49396963     0.98800
C395        C  0.30346689  0.22372876  0.49161912     0.93700
O396        O  0.27516456  0.18816828  0.50103629    -0.82400
C397        C  0.39605453  0.33525206  0.70743708     0.02200
C398        C  0.44174143  0.34909571  0.70908378     0.02200
C399        C  0.46532505  0.35325548  0.68995805    -0.18300
C400        C  0.44411332  0.34197168  0.66959802     0.02200
C401        C  0.39831757  0.32736618  0.66793937     0.02200
C402        C  0.37501148  0.32438212  0.68701542    -0.18300
H403        H  0.34002179  0.31374113  0.68596593     0.04200
H404        H  0.50010208  0.36294420  0.69102608     0.04200
C405        C  0.17347199  0.10488177  0.71312463     0.02200
C406        C  0.17934367  0.06790500  0.71074593     0.02200
C407        C  0.18739747  0.05641611  0.69007060    -0.18300
C408        C  0.18552940  0.07769533  0.67101319     0.02200
C409        C  0.17890092  0.11437876  0.67334248     0.02200
C410        C  0.17316604  0.12734194  0.69422629    -0.18300
H411        H  0.16744360  0.15487066  0.69565846     0.04200
H412        H  0.19395100  0.02944619  0.68893099     0.04200
C413        C  0.45366091  0.09282336  0.70469870     0.02200
C414        C  0.41247585  0.05196188  0.70568693     0.02200
C415        C  0.38868316  0.03507975  0.68610328    -0.18300
C416        C  0.40434109  0.05796614  0.66611578     0.02200
C417        C  0.44675046  0.09732238  0.66496304     0.02200
C418        C  0.47174348  0.11129461  0.68419295    -0.18300
H419        H  0.50502147  0.13966106  0.68336763     0.04200
H420        H  0.35691159  0.00434135  0.68641003     0.04200
C421        C  0.35508699  0.34358218  0.64109046    -0.12300
C422        C  0.37444561  0.31824236  0.64660032     0.04700
C423        C  0.36816754  0.28384889  0.63232679    -0.07600
C424        C  0.34771552  0.27950516  0.61212438    -0.08400
C425        C  0.32338840  0.30053341  0.60791925    -0.02900
C426        C  0.32752343  0.33332289  0.62277983     0.03900
N427        N  0.30002690  0.35246663  0.62131050     0.66400
H428        H  0.35818607  0.36905024  0.65217226     0.15300
H429        H  0.34586712  0.25486524  0.60091101     0.15000
N430        N  0.37347821  0.24790455  0.63956244     0.74100
O431        O  0.26152794  0.33200741  0.62953481    -0.39300
O432        O  0.31747093  0.39315733  0.61689483    -0.39300
O433        O  0.35342228  0.22737353  0.65668862    -0.40000
O434        O  0.38467088  0.22828041  0.62600606    -0.40100
C435        C  0.22353297  0.21084443  0.63413280    -0.12300
C436        C  0.19780390  0.19071008  0.61556810     0.04700
C437        C  0.16077820  0.14745801  0.61719818    -0.07600
C438        C  0.15261715  0.12373614  0.63682568    -0.08400
C439        C  0.18168309  0.14241767  0.65460080    -0.02900
C440        C  0.21635020  0.18714265  0.65350516     0.03900
N441        N  0.24676060  0.20790064  0.67123224     0.66400
H442        H  0.25137898  0.24441627  0.63321319     0.15300
H443        H  0.12548296  0.08964870  0.63770590     0.15000
N444        N  0.13337850  0.12604134  0.59872019     0.74100
O445        O  0.26796854  0.19066544  0.67896785    -0.39300
O446        O  0.25569684  0.24568630  0.67773302    -0.39300
O447        O  0.13979569  0.09937515  0.58777784    -0.40000
O448        O  0.09723241  0.12553842  0.59658799    -0.40100
C449        C  0.48012244  0.28133038  0.63396140    -0.12300
C450        C  0.49201039  0.30589979  0.61456543     0.04700
C451        C  0.49393284  0.34718592  0.61425127    -0.07600
C452        C  0.47951909  0.36033600  0.63262486    -0.08400
C453        C  0.46710794  0.33451594  0.65169523    -0.02900
C454        C  0.47112802  0.29684246  0.65282695     0.03900
N455        N  0.46374767  0.27271787  0.67282962     0.66400
H456        H  0.47477399  0.24856510  0.63442678     0.15300
H457        H  0.47712721  0.38994714  0.63189905     0.15000
N458        N  0.99012278  0.37619511  0.59305938     0.74100
O459        O  0.42482959  0.24755176  0.67988424    -0.39300
O460        O  0.49628062  0.28236815  0.68516880    -0.39300
O461        O  0.95419678  0.36712359  0.58385152    -0.40000
O462        O  0.02560852  0.41117389  0.58779663    -0.40100
C463        C  0.45906139  0.11063313  0.62373443    -0.12300
C464        C  0.46448186  0.12752800  0.64511846     0.04700
C465        C  0.48897680  0.17451925  0.64735509    -0.07600
C466        C  0.50734312  0.20150908  0.62889790    -0.08400
C467        C  0.49219629  0.18450217  0.60811747    -0.02900
C468        C  0.46885055  0.13836420  0.60539151     0.03900
N469        N  0.45433764  0.11926402  0.58429289     0.66400
H470        H  0.44675970  0.07613071  0.62097099     0.15300
H471        H  0.52914887  0.23691949  0.63089067     0.15000
N472        N  0.49235045  0.19575387  0.66780102     0.74100
O473        O  0.07322366  0.24528646  0.62773795    -0.39300
O474        O  0.41742532  0.11218277  0.57716020    -0.39300
O475        O  0.52956048  0.22665764  0.67433013    -0.40000
O476        O  0.45787219  0.18483507  0.67897213    -0.40100
C477        C  0.31620251  0.04570504  0.62700597    -0.12300
C478        C  0.32041991  0.02143134  0.60983866     0.04700
C479        C  0.35134959  0.00678713  0.61196812    -0.07600
C480        C  0.37423367  0.01412794  0.63187891    -0.08400
C481        C  0.37324583  0.04268204  0.64758334    -0.02900
C482        C  0.34373774  0.05822786  0.64511810     0.03900
N483        N  0.34210039  0.08768332  0.66066771     0.66400
H484        H  0.29199871  0.05615223  0.62643549     0.15300
H485        H  0.39729425  0.00239012  0.63404387     0.15000
N486        N  0.36342975  0.98913161  0.59372330     0.74100
O487        O  0.36466241  0.12896324  0.65729153    -0.39300
O488        O  0.31162024  0.07260400  0.67485051    -0.39300
O489        O  0.36280763  0.00223152  0.57457632    -0.40000
O490        O  0.38305086  0.96773877  0.59693164    -0.40100
C491        C  0.17791126  0.00017217  0.62486509    -0.12300
C492        C  0.20546573  0.03025345  0.60894401     0.04700
C493        C  0.22314157  0.07599141  0.61257233    -0.07600
C494        C  0.21907070  0.09077312  0.63317181    -0.08400
C495        C  0.19102328  0.06086979  0.64929072    -0.02900
C496        C  0.16936930  0.01481896  0.64449112     0.03900
N497        N  0.13509687  0.48254149  0.65836433     0.66400
H498        H  0.16032359  0.46542285  0.62149342     0.15300
H499        H  0.23738867  0.12599955  0.63626233     0.15000
N500        N  0.24405731  0.10758789  0.59526016     0.74100
O501        O  0.09690465  0.47781070  0.65971441    -0.39300
O502        O  0.14077332  0.45145217  0.66469527    -0.39300
O503        O  0.22575256  0.10018218  0.57678488    -0.40000
O504        O  0.28002236  0.14344303  0.59852210    -0.40100
C505        C  0.98514912  0.32920015  0.73619054    -0.12300
C506        C  0.46533535  0.35653333  0.73036279     0.04700
C507        C  0.47297524  0.39128328  0.74442424    -0.07600
C508        C  0.49527745  0.39680278  0.76420420    -0.08400
C509        C  0.01675340  0.37198296  0.76955630    -0.02900
C510        C  0.01195772  0.33871251  0.75478764     0.03900
N511        N  0.03760615  0.31765163  0.75685386     0.66400
H512        H  0.98193432  0.30373214  0.72507971     0.15300
H513        H  0.49881159  0.42285533  0.77490476     0.15000
N514        N  0.46433667  0.42505289  0.73744096     0.74100
O515        O  0.01863498  0.27746279  0.76261640    -0.39300
O516        O  0.07528163  0.33516139  0.74778754    -0.39300
O517        O  0.43909819  0.43314683  0.74863877    -0.40000
O518        O  0.49059702  0.45372416  0.72392857    -0.40100
C519        C  0.12335959  0.46598390  0.74711760    -0.12300
C520        C  0.14649806  0.48238887  0.76657211     0.04700
C521        C  0.18352814  0.02425288  0.76662804    -0.07600
C522        C  0.19672044  0.05113855  0.74789185    -0.08400
C523        C  0.17073659  0.03666131  0.72888524    -0.02900
C524        C  0.13590585  0.49191873  0.72836340     0.03900
N525        N  0.10699228  0.47528912  0.70989581     0.66400
H526        H  0.09339704  0.43366578  0.74679551     0.15300
H527        H  0.22578985  0.08414161  0.74849669     0.15000
N528        N  0.20900455  0.04042914  0.78615814     0.74100
O529        O  0.09319558  0.43610415  0.70363874    -0.39300
O530        O  0.08642707  0.49444662  0.70390791    -0.39300
O531        O  0.24196783  0.03548621  0.78903316    -0.40000
O532        O  0.20417855  0.06685355  0.79816645    -0.40100
C533        C  0.48538205  0.14140720  0.76204671    -0.12300
C534        C  0.01942629  0.15630117  0.76430406     0.04700
C535        C  0.03528143  0.15613217  0.74318872    -0.07600
C536        C  0.52586193  0.13419680  0.72434316    -0.08400
C537        C  0.47978128  0.11724102  0.72438340    -0.02900
C538        C  0.46031145  0.12473623  0.74291005     0.03900
N539        N  0.41631089  0.11781107  0.74219400     0.66400
H540        H  0.96281969  0.14632516  0.78311442     0.15300
H541        H  0.54179496  0.13013142  0.71013178     0.15000
N542        N  0.08060983  0.16918548  0.73926536     0.74100
O543        O  0.38872771  0.09533048  0.75699388    -0.39300
O544        O  0.40877641  0.14247380  0.73010027    -0.39300
O545        O  0.08913936  0.14361419  0.72863599    -0.40000
O546        O  0.11010716  0.20960547  0.74085561    -0.40100
C547        C  0.12849618  0.08625990  0.74749692    -0.12300
C548        C  0.16338535  0.11828305  0.73461989     0.04700
C549        C  0.18585227  0.16291133  0.74188316    -0.07600
C550        C  0.17102191  0.17452924  0.76065874    -0.08400
C551        C  0.13547461  0.14224963  0.77314930    -0.02900
C552        C  0.11689005  0.09733481  0.76725993     0.03900
N553        N  0.08917438  0.06243768  0.78203849     0.66400
H554        H  0.10994807  0.05207078  0.74239018     0.15300
H555        H  0.18628998  0.20925051  0.76485094     0.15000
N556        N  0.22295488  0.19713048  0.73016385     0.74100
O557        O  0.05221447  0.03075986  0.77571476    -0.39300
O558        O  0.10652128  0.05783875  0.79911427    -0.39300
O559        O  0.22165560  0.23063995  0.72360690    -0.40000
O560        O  0.25996205  0.19908279  0.73118214    -0.40100
C561        C  0.40504256  0.99889639  0.76151675    -0.12300
C562        C  0.36010136  0.47748576  0.76708358     0.04700
C563        C  0.33199209  0.48290323  0.75231819    -0.07600
C564        C  0.34982528  0.50881568  0.73331174    -0.08400
C565        C  0.39456868  0.02541340  0.72646635    -0.02900
C566        C  0.42214779  0.01922021  0.74119332     0.03900
N567        N  0.46646530  0.03020111  0.73521615     0.66400
H568        H  0.42785916  0.99796749  0.77309088     0.15300
H569        H  0.32776332  0.51331675  0.72260274     0.15000
N570        N  0.28499849  0.46056098  0.75547855     0.74100
O571        O  0.49584159  0.04072210  0.74966809    -0.39300
O572        O  0.47501184  0.02442427  0.71589911    -0.39300
O573        O  0.26737332  0.48248484  0.76152891    -0.40000
O574        O  0.26089433  0.42276561  0.74716516    -0.40100
C575        C  0.33523541  0.37013316  0.74538615    -0.12300
C576        C  0.33730419  0.35034403  0.76488373     0.04700
C577        C  0.35111968  0.31910873  0.76463758    -0.07600
C578        C  0.36707487  0.31149747  0.74521143    -0.08400
C579        C  0.37054286  0.33590816  0.72635901    -0.02900
C580        C  0.35243887  0.36382068  0.72617803     0.03900
N581        N  0.35618693  0.38997595  0.70739681     0.66400
H582        H  0.32408458  0.39382546  0.74547659     0.15300
H583        H  0.37957458  0.28884981  0.74519992     0.15000
N584        N  0.35231423  0.29758050  0.78421927     0.74100
O585        O  0.32183834  0.38214857  0.69696547    -0.39300
O586        O  0.39372576  0.42145510  0.70144408    -0.39300
O587        O  0.32106767  0.25870556  0.78828375    -0.40000
O588        O  0.38811729  0.31331312  0.79481116    -0.40100
C589        C  0.45277865  0.10761678  0.29977660    -0.12300
C590        C  0.47665503  0.13317060  0.28179289     0.04700
C591        C  0.02490213  0.17021537  0.28417611    -0.07600
C592        C  0.04658561  0.17428987  0.30398891    -0.08400
C593        C  0.02480615  0.14405845  0.32125253    -0.02900
C594        C  0.47400827  0.10987599  0.31930810     0.03900
N595        N  0.44719729  0.08198271  0.33687602     0.66400
H596        H  0.41763418  0.08365848  0.29827385     0.15300
H597        H  0.08145479  0.19933733  0.30534625     0.15000
N598        N  0.04957130  0.19776960  0.26615708     0.74100
O599        O  0.41708542  0.08748813  0.34490261    -0.39300
O600        O  0.45090397  0.04977190  0.34321669    -0.39300
O601        O  0.05802437  0.23730730  0.26544693    -0.40000
O602        O  0.07129073  0.18633592  0.25413479    -0.40100
C603        C  0.39491607  0.48797021  0.27675603    -0.12300
C604        C  0.37094303  0.00895497  0.27102788     0.04700
C605        C  0.33496257  0.00192785  0.28460307    -0.07600
C606        C  0.32615617  0.97737299  0.30393699    -0.08400
C607        C  0.35549956  0.46343530  0.31129478    -0.02900
C608        C  0.39029940  0.46929128  0.29744653     0.03900
N609        N  0.42517299  0.46293629  0.30517310     0.66400
H610        H  0.42103206  0.49042916  0.26630393     0.15300
H611        H  0.29883376  0.97273517  0.31420786     0.15000
N612        N  0.30999661  0.02316389  0.28058557     0.74100
O613        O  0.43357128  0.43684669  0.29510154    -0.39300
O614        O  0.45542817  0.49289569  0.31660263    -0.39300
O615        O  0.27108060  0.00075124  0.27311772    -0.40000
O616        O  0.32237586  0.06040149  0.28910506    -0.40100
C617        C  0.00292334  0.41042007  0.28400342    -0.12300
C618        C  0.48483749  0.36385308  0.27719670     0.04700
C619        C  0.49272709  0.33604377  0.29112865    -0.07600
C620        C  0.01855118  0.35505613  0.31028571    -0.08400
C621        C  0.03109226  0.39764018  0.31793486    -0.02900
C622        C  0.02106386  0.42460570  0.30483351     0.03900
N623        N  0.02696139  0.46562673  0.31294021     0.66400
H624        H  0.99963796  0.43375215  0.27379614     0.15300
H625        H  0.02636640  0.33390253  0.31988288     0.15000
N626        N  0.47641912  0.29066152  0.28595933     0.74100
O627        O  0.03958289  0.49842019  0.30032555    -0.39300
O628        O  0.01577659  0.46796416  0.33225648    -0.39300
O629        O  0.50294175  0.27945968  0.27853775    -0.40000
O630        O  0.43909188  0.26122885  0.29327379    -0.40100
C631        C  0.37935848  0.33749185  0.30156494    -0.12300
C632        C  0.35675593  0.33530008  0.28225630     0.04700
C633        C  0.32323449  0.34617528  0.28300654    -0.07600
C634        C  0.31710348  0.36468311  0.30205600    -0.08400
C635        C  0.34480537  0.37354042  0.32033687    -0.02900
C636        C  0.37399793  0.35670412  0.32049633     0.03900
N637        N  0.40242849  0.36367949  0.33867785     0.66400
H638        H  0.40455469  0.32824548  0.30136846     0.15300
H639        H  0.29259395  0.37487931  0.30204417     0.15000
N640        N  0.29713744  0.34123317  0.26417133     0.74100
O641        O  0.40006725  0.33093257  0.34858029    -0.39300
O642        O  0.43163127  0.40247694  0.34409019    -0.39300
O643        O  0.25919861  0.30697797  0.26225775    -0.40000
O644        O  0.30802584  0.37414532  0.25185044    -0.40100
C645        C  0.15771849  0.05108220  0.29817785    -0.12300
C646        C  0.15809220  0.02700358  0.28016720     0.04700
C647        C  0.14331083  0.48110478  0.28266803    -0.07600
C648        C  0.12585046  0.46078216  0.30281863    -0.08400
C649        C  0.11920184  0.48394732  0.31979720    -0.02900
C650        C  0.13604671  0.02996932  0.31742986     0.03900
N651        N  0.12956726  0.05606465  0.33344047     0.66400
H652        H  0.17054680  0.08620819  0.29657570     0.15300
H653        H  0.11498155  0.42597179  0.30471725     0.15000
N654        N  0.14302026  0.45499069  0.26478051     0.74100
O655        O  0.16121564  0.09428978  0.33809560    -0.39300
O656        O  0.09143839  0.04341896  0.34114200    -0.39300
O657        O  0.17216959  0.44398226  0.26378487    -0.40000
O658        O  0.10889998  0.43535490  0.25292752    -0.40100
C659        C  0.08178482  0.11078689  0.30235063    -0.12300
C660        C  0.11181788  0.14449700  0.31636382     0.04700
C661        C  0.15587184  0.17296627  0.30883382    -0.07600
C662        C  0.16954086  0.16436016  0.28883418    -0.08400
C663        C  0.13905004  0.13044976  0.27507281    -0.02900
C664        C  0.09379765  0.10729026  0.28106062     0.03900
N665        N  0.05970496  0.08256489  0.26528076     0.66400
H666        H  0.04778481  0.08868605  0.30747343     0.15300
H667        H  0.20434926  0.18375151  0.28444269     0.15000
N668        N  0.18692018  0.21115238  0.32088969     0.74100
O669        O  0.02362233  0.04861946  0.27088568    -0.39300
O670        O  0.06397018  0.09721766  0.24605877    -0.39300
O671        O  0.22128908  0.21295224  0.32858240    -0.40000
O672        O  0.18577605  0.24643562  0.31907440    -0.40100
C673        C  0.33438177  0.50912262  0.42506320    -0.12300
C674        C  0.28799444  0.49204640  0.42627665     0.04700
C675        C  0.26209380  0.46793960  0.40783798    -0.07600
C676        C  0.28287094  0.46383707  0.38918090    -0.08400
C677        C  0.32757161  0.47632864  0.38931535    -0.02900
C678        C  0.35394976  0.50057285  0.40709305     0.03900
N679        N  0.40062137  0.51704850  0.40702691     0.66400
H680        H  0.35560984  0.52758977  0.43859060     0.15300
H681        H  0.26230053  0.44369848  0.37577548     0.15000
N682        N  0.21524878  0.43858853  0.40894444     0.74100
O683        O  0.41632695  0.49957389  0.41939536    -0.39300
O684        O  0.42647396  0.55415914  0.39827905    -0.39300
O685        O  0.19189347  0.43770242  0.39310597    -0.40000
O686        O  0.20271402  0.40244730  0.41854050    -0.40100
C687        C  0.19483110  0.51511516  0.41932559    -0.12300
C688        C  0.17316948  0.49788309  0.43908729     0.04700
C689        C  0.12678942  0.47790345  0.44008549    -0.07600
C690        C  0.10236086  0.46771643  0.42054173    -0.08400
C691        C  0.12398401  0.47652404  0.40002984    -0.02900
C692        C  0.17139557  0.50555137  0.39986517     0.03900
N693        N  0.19660514  0.02300048  0.37987575     0.66400
H694        H  0.23000404  0.03279920  0.41819235     0.15300
H695        H  0.06641591  0.45050706  0.42140407     0.15000
N696        N  0.10462941  0.46961702  0.46066925     0.74100
O697        O  0.20851249  0.06253875  0.37504371    -0.39300
O698        O  0.21955259  0.51034502  0.37204095    -0.39300
O699        O  0.10117643  0.50010281  0.46961171    -0.40000
O700        O  0.09544490  0.43533628  0.47151237    -0.40100
C701        C  0.19566980  0.18121976  0.42040266    -0.12300
C702        C  0.19337511  0.21152847  0.43461314     0.04700
C703        C  0.16114384  0.22327006  0.43035098    -0.07600
C704        C  0.13785516  0.21109597  0.41064810    -0.08400
C705        C  0.13715625  0.17832143  0.39719877    -0.02900
C706        C  0.16646622  0.16296593  0.40252180     0.03900
N707        N  0.16759121  0.12940549  0.38986485     0.66400
H708        H  0.21985024  0.17116388  0.42321360     0.15300
H709        H  0.11858082  0.22619460  0.40653275     0.15000
N710        N  0.14867600  0.24401448  0.44666635     0.74100
O711        O  0.20373093  0.13692139  0.38144423    -0.39300
O712        O  0.13292588  0.09191178  0.38756083    -0.39300
O713        O  0.14099018  0.27421325  0.44142848    -0.40000
O714        O  0.14046765  0.22877810  0.46587493    -0.40100
C715        C  0.35645221  0.36056701  0.42777678    -0.12300
C716        C  0.31615583  0.34682137  0.43879048     0.04700
C717        C  0.29209250  0.36752656  0.43295201    -0.07600
C718        C  0.29803143  0.38620163  0.41225227    -0.08400
C719        C  0.33624788  0.39720075  0.40006965    -0.02900
C720        C  0.36888647  0.38976194  0.40970427     0.03900
N721        N  0.41492638  0.41431485  0.40303269     0.66400
H722        H  0.37855720  0.34941789  0.43325888     0.15300
H723        H  0.27355064  0.39350128  0.40626576     0.15000
N724        N  0.26864012  0.37715711  0.44913552     0.74100
O725        O  0.44474566  0.42096277  0.41668810    -0.39300
O726        O  0.42664999  0.43598429  0.38538129    -0.39300
O727        O  0.29037017  0.40417650  0.46412974    -0.40000
O728        O  0.22830657  0.36521018  0.44653219    -0.40100
C729        C  0.99264319  0.32280170  0.42319283    -0.12300
C730        C  0.02596168  0.32311826  0.43615268     0.04700
C731        C  0.07056840  0.35130373  0.42984293    -0.04600
C732        C  0.08089755  0.37648349  0.41074652    -0.08400
C733        C  0.04809359  0.37715496  0.39796552    -0.02900
C734        C  0.00299060  0.34808982  0.40394941     0.03900
N735        N  0.46566594  0.33836196  0.39015447     0.66400
H736        H  0.45641833  0.29927822  0.42745041     0.15300
H737        H  0.11530751  0.39636304  0.40605505     0.15000
N738        N  0.10622644  0.35398279  0.44218733     0.74100
O739        O  0.45098313  0.30510440  0.37778897    -0.39300
O740        O  0.43960872  0.35153036  0.39557929    -0.39300
O741        O  0.11650714  0.37357651  0.46026432    -0.40000
O742        O  0.13086777  0.34158465  0.43374580    -0.40100
C743        C  0.01903360  0.15657949  0.43634819    -0.12300
C744        C  0.01166613  0.19211851  0.43267109     0.04700
C745        C  0.01865356  0.21098691  0.41172404    -0.07600
C746        C  0.03516771  0.19659150  0.39537244    -0.08400
C747        C  0.04284581  0.16168159  0.39870346    -0.02900
C748        C  0.03372632  0.14042929  0.41917076     0.03900
N749        N  0.03964673  0.10333696  0.42259660     0.66400
H750        H  0.01396494  0.14198736  0.45247379     0.15300
H751        H  0.04194721  0.21290724  0.37957584     0.15000
N752        N  0.00795448  0.24408199  0.40633806     0.74100
O753        O  0.06973696  0.10678592  0.43522341    -0.39300
O754        O  0.01797965  0.06870030  0.41133240    -0.39300
O755        O  0.96757452  0.23327688  0.40609622    -0.40000
O756        O  0.03569545  0.27764169  0.39552095    -0.40100
C757        C  0.49500288  0.17544359  0.06480599    -0.12300
C758        C  0.46722298  0.19334101  0.06174651     0.04700
C759        C  0.44284083  0.19438010  0.07984558    -0.07600
C760        C  0.45300304  0.18567093  0.10054989    -0.08400
C761        C  0.47077538  0.15797576  0.10254696    -0.02900
C762        C  0.49411055  0.15456028  0.08454791     0.03900
N763        N  0.02683581  0.14408154  0.08924232     0.66400
H764        H  0.02401282  0.18661935  0.05418135     0.15300
H765        H  0.43692336  0.19048387  0.11451517     0.15000
N766        N  0.40152847  0.19313679  0.07711850     0.74100
O767        O  0.01178613  0.10660663  0.08046641    -0.39300
O768        O  0.06676194  0.16514575  0.09549761    -0.39300
O769        O  0.37379948  0.16620635  0.06358226    -0.40000
O770        O  0.38774363  0.20790594  0.09202444    -0.40100
C771        C  0.33634202  0.33299188  0.06262839    -0.12300
C772        C  0.29170188  0.29771999  0.06261880     0.04700
C773        C  0.26867471  0.28712044  0.08287667    -0.07600
C774        C  0.29340475  0.29886551  0.10240958    -0.08400
C775        C  0.33918057  0.32915062  0.10201648    -0.02900
C776        C  0.35871819  0.35110556  0.08227299     0.03900
N777        N  0.40129333  0.39098342  0.08202105     0.66400
H778        H  0.35476486  0.34586577  0.04757925     0.15300
H779        H  0.27703792  0.28519297  0.11787755     0.15000
N780        N  0.22109830  0.26605203  0.08374235     0.74100
O781        O  0.43500920  0.39103269  0.07465863    -0.39300
O782        O  0.40372405  0.42740944  0.08615690    -0.39300
O783        O  0.19995100  0.24409537  0.10039867    -0.40000
O784        O  0.20110239  0.27564860  0.06957283    -0.40100
C785        C  0.49628338  0.29733216  0.07132811    -0.12300
C786        C  0.46398539  0.27790618  0.05481625     0.04700
C787        C  0.42528480  0.28074277  0.05638099    -0.07600
C788        C  0.41716800  0.29769509  0.07532767    -0.08400
C789        C  0.44792280  0.31504562  0.09255721    -0.02900
C790        C  0.48888414  0.31652065  0.08992423     0.03900
N791        N  0.02260870  0.34107352  0.10612192     0.66400
H792        H  0.02783704  0.30253701  0.07001096     0.15300
H793        H  0.38531122  0.29520074  0.07683690     0.15000
N794        N  0.39240286  0.26396403  0.03946929     0.74100
O795        O  0.02786785  0.31704089  0.11973151    -0.39300
O796        O  0.05300219  0.38097172  0.10361372    -0.39300
O797        O  0.37277995  0.22356546  0.03424781    -0.40000
O798        O  0.38139178  0.28928381  0.03037888    -0.40100
C799        C  0.16604977  0.14255076  0.08462732    -0.12300
C800        C  0.19594041  0.14586676  0.10078425     0.04700
C801        C  0.24181126  0.17511358  0.09731934    -0.07600
C802        C  0.25729222  0.19768965  0.07738380    -0.08400
C803        C  0.22743147  0.19560933  0.06150990    -0.02900
C804        C  0.18120881  0.16708117  0.06519823     0.03900
N805        N  0.14906432  0.16248174  0.04940242     0.66400
H806        H  0.13073875  0.11963268  0.08672643     0.15300
H807        H  0.29272167  0.21953370  0.07492528     0.15000
N808        N  0.27235010  0.18606313  0.11488770     0.74100
O809        O  0.12656927  0.12604201  0.03960298    -0.39300
O810        O  0.13602043  0.19006009  0.04912486    -0.39300
O811        O  0.30872610  0.18751710  0.11190041    -0.40000
O812        O  0.26670330  0.20254237  0.13197159    -0.40100
C813        C  0.29416572  0.04470839  0.07798447    -0.12300
C814        C  0.29548147  0.01592272  0.06250346     0.04700
C815        C  0.32185742  0.99670760  0.06728161    -0.07600
C816        C  0.34678569  0.00784570  0.08648628    -0.08400
C817        C  0.34433847  0.03576765  0.10193203    -0.02900
C818        C  0.31504033  0.05151753  0.09816993     0.03900
N819        N  0.30464114  0.07289661  0.11498505     0.66400
H820        H  0.27617482  0.06164450  0.07473626     0.15300
H821        H  0.37313211  0.50055467  0.08862751     0.15000
N822        N  0.32999024  0.47252926  0.05228668     0.74100
O823        O  0.31069427  0.11112176  0.11176459    -0.39300
O824        O  0.28316731  0.05102695  0.13156740    -0.39300
O825        O  0.36751925  0.48177966  0.04492225    -0.40000
O826        O  0.29885266  0.43259997  0.05264558    -0.40100
C827        C  0.17344503  0.04166272  0.07911608    -0.12300
C828        C  0.17144366  0.01879745  0.09812686     0.04700
C829        C  0.17915341  0.98312951  0.09714379    -0.07600
C830        C  0.19408922  0.97470231  0.07748328    -0.08400
C831        C  0.20208914  0.00225737  0.05922638    -0.02900
C832        C  0.18969066  0.03471985  0.05989978     0.03900
N833        N  0.19865719  0.06474564  0.04214076     0.66400
H834        H  0.16556438  0.06760659  0.07951676     0.15300
H835        H  0.20223965  0.94874870  0.07685555     0.15000
N836        N  0.17379823  0.95665458  0.11596402     0.74100
O837        O  0.16675945  0.06121312  0.03092192    -0.39300
O838        O  0.23593170  0.10013648  0.04109614    -0.39300
O839        O  0.13684467  0.92186266  0.11934490    -0.40000
O840        O  0.20772924  0.96183029  0.12586985    -0.40100
C841        C  0.20357696  0.19550633  0.94177449    -0.12300
C842        C  0.15747128  0.16941502  0.94509157     0.04700
C843        C  0.14191225  0.15026734  0.96575325    -0.07600
C844        C  0.17037872  0.16701847  0.98373023    -0.08400
C845        C  0.21590140  0.19902728  0.98120402    -0.02900
C846        C  0.23326660  0.20757182  0.95960601     0.03900
N847        N  0.28005816  0.22682919  0.95567919     0.66400
H848        H  0.21624009  0.20639459  0.92540373     0.15300
H849        H  0.15582775  0.15617710  0.99974410     0.15000
N850        N  0.09746302  0.11387499  0.96867293     0.74100
O851        O  0.30319071  0.21936402  0.96887959    -0.39300
O852        O  0.29707757  0.24573042  0.93773481    -0.39300
O853        O  0.08819353  0.07583149  0.96242183    -0.40000
O854        O  0.07135791  0.11722022  0.98167664    -0.40100
C855        C  0.98754891  0.16106838  0.94699102    -0.12300
C856        C  0.03286287  0.17368836  0.94895584     0.04700
C857        C  0.05303396  0.19022759  0.96962170    -0.07600
C858        C  0.02797377  0.19015343  0.98737606    -0.08400
C859        C  0.98573782  0.18393734  0.98447897    -0.02900
C860        C  0.96455347  0.16767311  0.96423714     0.03900
N861        N  0.41733394  0.15330659  0.95955208     0.66400
H862        H  0.46906677  0.14427757  0.93074587     0.15300
H863        H  0.04523462  0.20457547  0.00256561     0.15000
N864        N  0.09944264  0.21887406  0.97204713     0.74100
O865        O  0.40941286  0.17789529  0.94763709    -0.39300
O866        O  0.38590648  0.11552879  0.96514274    -0.39300
O867        O  0.11366692  0.25909777  0.96757934    -0.40000
O868        O  0.11847691  0.21044982  0.98720172    -0.40100
C869        C  0.27226655  0.32629401  0.94760714    -0.12300
C870        C  0.31742037  0.35366025  0.94337953     0.04700
C871        C  0.34814654  0.35462446  0.95880915    -0.07600
C872        C  0.33254216  0.32695622  0.97737815    -0.08400
C873        C  0.28675882  0.30059836  0.98167189    -0.02900
C874        C  0.25728955  0.30331800  0.96724726     0.03900
N875        N  0.21160354  0.28332383  0.97224474     0.66400
H876        H  0.24795923  0.32485154  0.93617526     0.15300
H877        H  0.35619357  0.32722630  0.98887685     0.15000
N878        N  0.39456071  0.38612450  0.95711140     0.74100
O879        O  0.18465149  0.26279352  0.95716476    -0.39300
O880        O  0.19955648  0.29725566  0.98827694    -0.39300
O881        O  0.41137128  0.42019789  0.96897878    -0.40000
O882        O  0.41972611  0.37510228  0.94792445    -0.40100
C883        C  0.32802021  0.45774515  0.96389023    -0.12300
C884        C  0.32868597  0.47741109  0.94397844     0.04700
C885        C  0.31624235  0.50957816  0.94292053    -0.07600
C886        C  0.29671920  0.01965098  0.96297214    -0.08400
C887        C  0.29740129  0.49799366  0.98153778    -0.02900
C888        C  0.31091716  0.46621364  0.98249406     0.03900
N889        N  0.30361178  0.43904773  0.00135588     0.66400
H890        H  0.33712566  0.43253174  0.96458153     0.15300
H891        H  0.28633810  0.04379407  0.96272508     0.15000
N892        N  0.30878481  0.02992327  0.92364906     0.74100
O893        O  0.26444022  0.41435394  0.00827365    -0.39300
O894        O  0.33343360  0.43097376  0.00719642    -0.39300
O895        O  0.27159990  0.01370538  0.91427559    -0.40000
O896        O  0.33985977  0.06797233  0.91816241    -0.40100
C897        C  0.97928741  0.32058588  0.95008903    -0.12300
C898        C  0.01325626  0.32260352  0.93711663     0.04700
C899        C  0.02876198  0.29358009  0.94188330    -0.07600
C900        C  0.01822619  0.27176156  0.96196827    -0.08400
C901        C  0.98469922  0.26976302  0.97545421    -0.02900
C902        C  0.96358883  0.29309160  0.96849571     0.03900
N903        N  0.43007565  0.29421329  0.98133367     0.66400
H904        H  0.96587625  0.34162952  0.94654047     0.15300
H905        H  0.03759067  0.25760910  0.96694004     0.15000
N906        N  0.05335252  0.28441063  0.92616285     0.74100
O907        O  0.43666283  0.33023538  0.98930940    -0.39300
O908        O  0.39100447  0.26154010  0.98033911    -0.39300
O909        O  0.09017211  0.28833265  0.93120462    -0.40000
O910        O  0.03379852  0.26325115  0.90916918    -0.40100
C911        C  0.17124110  0.49646535  0.94783001    -0.12300
C912        C  0.14115802  0.45040961  0.94681442     0.04700
C913        C  0.14399645  0.42305151  0.96311561    -0.07600
C914        C  0.17812294  0.44115052  0.97838971    -0.08400
C915        C  0.20671961  0.48673237  0.97978537    -0.02900
C916        C  0.20233078  0.51496774  0.96482032     0.03900
N917        N  0.21908871  0.05697253  0.97021150     0.66400
H918        H  0.16469869  0.01584913  0.93736632     0.15300
H919        H  0.17955841  0.41970367  0.99077311     0.15000
N920        N  0.10923071  0.37842512  0.96678170     0.74100
O921        O  0.24310073  0.08333039  0.95532522    -0.39300
O922        O  0.20697270  0.07174020  0.98585015    -0.39300
O923        O  0.11901964  0.34848358  0.96843495    -0.40000
O924        O  0.07347516  0.37197995  0.97522001    -0.40100
C925        C  0.05257399  0.92536096  0.90000930     0.86400
C926        C  0.01727519  0.88287582  0.91157052    -0.53800
C927        C  0.03438836  0.85957584  0.92152294     0.09300
C928        C  0.08555166  0.88197383  0.91917585     0.20300
C929        C  0.08678797  0.95202741  0.91786415    -0.54500
C930        C  0.10374242  0.92905631  0.92831489     0.09500
C931        C  0.07510673  0.90843993  0.88485957    -0.54100
C932        C  0.09429198  0.88764782  0.89466153     0.10000
H933        H  0.98223738  0.87244427  0.91193340     0.14500
H934        H  0.10068396  0.86419898  0.92669917     0.00300
H935        H  0.09544434  0.98549839  0.92214580     0.14800
H936        H  0.06559418  0.90245264  0.86811633     0.14600
C937        C  0.37406503  0.94365931  0.89860430     0.86400
C938        C  0.37198745  0.97783422  0.91344079    -0.53800
C939        C  0.33248810  0.96061661  0.92436531     0.09300
C940        C  0.29958966  0.91119507  0.91984186     0.20300
C941        C  0.36506214  0.90504964  0.91375148    -0.54500
C942        C  0.32678561  0.88879110  0.92556419     0.09500
C943        C  0.33311516  0.92698040  0.88422711    -0.54100
C944        C  0.29376988  0.90788200  0.89502367     0.10000
H945        H  0.39992060  0.01094206  0.91638966     0.14500
H946        H  0.26782830  0.89857644  0.92885180     0.00300
H947        H  0.38768628  0.89263625  0.91515444     0.14800
H948        H  0.33554245  0.93532010  0.86725983     0.14600
C949        C  0.06642906  0.62259648  0.90135911     0.86400
C950        C  0.10394957  0.62654333  0.91595851    -0.53800
C951        C  0.12459424  0.66464276  0.92790528     0.09300
C952        C  0.10534542  0.69573009  0.92406547     0.20300
C953        C  0.03493969  0.62778349  0.91723139    -0.54500
C954        C  0.05498780  0.66564646  0.92981765     0.09500
C955        C  0.08870425  0.66493687  0.88779059    -0.54100
C956        C  0.10783313  0.70354266  0.89895087     0.10000
H957        H  0.11236119  0.60078399  0.91743784     0.14500
H958        H  0.12228342  0.72723913  0.93288459     0.00300
H959        H  0.00030798  0.60211435  0.91917563     0.14800
H960        H  0.09299696  0.66442566  0.87056647     0.14600
O961        O  0.10349579  0.76708757  0.82939780    -0.81900
C962        C  0.25153559  0.88257303  0.88287652     0.97500
O963        O  0.24401970  0.84743802  0.87337298    -0.71000
O964        O  0.16802321  0.77215353  0.88403647    -0.74600
Al965      Al  0.19555633  0.80237459  0.85667508     1.49000
C966        C  0.12647346  0.74607254  0.88607607     0.92700
O967        O  0.10150212  0.82802127  0.88088986    -0.80800
O968        O  0.16522652  0.88883002  0.82661936    -0.74400
Al969      Al  0.10574261  0.79919433  0.85526214     1.90100
O970        O  0.15038266  0.89577632  0.87025507    -0.73400
O971        O  0.24275393  0.89622686  0.83583837    -0.73300
O972        O  0.22642008  0.89820759  0.87982287    -0.78900
O973        O  0.22638218  0.82802976  0.82966075    -0.77100
O974        O  0.16504537  0.83042206  0.85524563    -1.13300
O975        O  0.15425250  0.75173992  0.83982946    -0.72500
C976        C  0.12202855  0.74420827  0.82757567     0.98300
C977        C  0.11712802  0.86939942  0.88179876     0.94700
Al978      Al  0.19361193  0.88955232  0.85333854     1.55600
O979        O  0.10006004  0.75162005  0.87408646    -0.77100
C980        C  0.24980730  0.86910692  0.82558314     0.98800
C981        C  0.12382487  0.87270960  0.82495109     0.93700
O982        O  0.09752072  0.83972612  0.83667178    -0.82400
C983        C  0.22787640  0.99563751  0.00054697     0.02200
C984        C  0.27098580  0.00162619  0.00158377     0.02200
C985        C  0.29899445  0.51557627  0.02072988    -0.18300
C986        C  0.27785763  0.51565061  0.04018801     0.02200
C987        C  0.23444918  0.50968566  0.03888622     0.02200
C988        C  0.21419471  0.50397599  0.01854943    -0.18300
H989        H  0.18059953  0.49808811  0.01768627     0.04200
H990        H  0.33265202  0.52177627  0.02111190     0.04200
C991        C  0.12867240  0.55736311  0.14411256     0.86400
C992        C  0.14165304  0.59944763  0.13043510    -0.53800
C993        C  0.18169111  0.61629760  0.11986201     0.09300
C994        C  0.20528337  0.59020554  0.12451615     0.20300
C995        C  0.13035273  0.52502002  0.12793154    -0.54500
C996        C  0.17062335  0.54212840  0.11770982     0.09500
C997        C  0.16816667  0.56986201  0.15919851    -0.54100
C998        C  0.20859157  0.58921163  0.14941197     0.10000
H999        H  0.11997973  0.61290431  0.12820875     0.14500
H1000       H  0.23752042  0.60337282  0.11598851     0.00300
H1001       H  0.10156660  0.49328859  0.12366220     0.14800
H1002       H  0.16394917  0.56055330  0.17604443     0.14600
C1003       C  0.43439017  0.87491356  0.14347414     0.86400
C1004       C  0.45971113  0.86792295  0.12451479    -0.53800
C1005       C  0.43386324  0.82867226  0.11321493     0.09300
C1006       C  0.38571904  0.80097043  0.12242668     0.20300
C1007       C  0.39313129  0.87133577  0.13239119    -0.54500
C1008       C  0.36810259  0.83328204  0.12098989     0.09500
C1009       C  0.41801039  0.83327281  0.15718601    -0.54100
C1010       C  0.39121038  0.79444301  0.14696427     0.10000
H1011       H  0.49344499  0.89246725  0.11991144     0.14500
H1012       H  0.36476205  0.76956391  0.11369582     0.00300
H1013       H  0.38750147  0.89906093  0.13139539     0.14800
H1014       H  0.43102183  0.83437063  0.17323025     0.14600
C1015       C  0.43890309  0.56546861  0.14396802     0.86400
C1016       C  0.40034354  0.53694064  0.12856883    -0.53800
C1017       C  0.38226800  0.55984966  0.11915307     0.09300
C1018       C  0.40519471  0.60893238  0.12613938     0.20300
C1019       C  0.47248164  0.60551640  0.12992045    -0.54500
C1020       C  0.45442866  0.62804516  0.12030083     0.09500
C1021       C  0.41837823  0.58341031  0.15994837    -0.54100
C1022       C  0.40315052  0.60854676  0.15087910     0.10000
H1023       H  0.38902855  0.50239344  0.12524750     0.14500
H1024       H  0.39013952  0.62679699  0.11878962     0.00300
H1025       H  0.50672531  0.61415990  0.12750947     0.14800
H1026       H  0.40985662  0.57055017  0.17628636     0.14600
O1027       O  0.26042447  0.60246913  0.21051391    -0.81900
C1028       C  0.37308657  0.75248116  0.15983175     0.97500
O1029       O  0.33177006  0.72681494  0.16230488    -0.71000
O1030       O  0.25681691  0.65031437  0.17147625    -0.74600
Al1031     Al  0.30369468  0.69539077  0.18908417     1.49000
C1032       C  0.24952825  0.61459826  0.16267480     0.92700
O1033       O  0.35007274  0.60284330  0.17601462    -0.80800
O1034       O  0.40529046  0.66362359  0.20864009    -0.74400
Al1035     Al  0.30834420  0.60933964  0.19304129     1.90100
O1036       O  0.39855530  0.67013007  0.16461391    -0.73400
O1037       O  0.39821780  0.73467337  0.21564725    -0.73300
O1038       O  0.39984066  0.74682262  0.17119912    -0.78900
O1039       O  0.34323962  0.74503197  0.20688502    -0.77100
O1040       O  0.33558001  0.66852669  0.19069480    -1.13300
O1041       O  0.27103014  0.66895769  0.21544860    -0.72500
C1042       C  0.24996610  0.62804215  0.21966041     0.98300
C1043       C  0.38236994  0.62843512  0.16401461     0.94700
Al1044     Al  0.39506432  0.70093955  0.19004022     1.55600
O1045       O  0.27383370  0.59859566  0.16702263    -0.77100
C1046       C  0.37722623  0.75500513  0.21834538     0.98800
C1047       C  0.38110346  0.63006450  0.22023449     0.93700
O1048       O  0.33920042  0.61147720  0.21925038    -0.82400
C1049       C  0.96817375  0.70398789  0.00057429     0.02200
C1050       C  0.97144068  0.74597780  0.99684579     0.02200
C1051       C  0.97041630  0.76993877  0.01515388    -0.18300
C1052       C  0.46597521  0.75175489  0.03614951     0.02200
C1053       C  0.46376038  0.71057419  0.03960552     0.02200
C1054       C  0.46170364  0.68527204  0.02131358    -0.18300
H1055       H  0.46006469  0.65384184  0.02388036     0.04200
H1056       H  0.97489870  0.80259458  0.01299633     0.04200
C1057       C  0.26856029  0.77498631  0.00226441     0.02200
C1058       C  0.23986067  0.72787395  0.00193369     0.02200
C1059       C  0.23039619  0.70509606  0.02201161    -0.18300
C1060       C  0.24383000  0.72702839  0.04222178     0.02200
C1061       C  0.27117083  0.77432588  0.04257823     0.02200
C1062       C  0.28307414  0.79693281  0.02240027    -0.18300
H1063       H  0.30331023  0.83279574  0.02222289     0.04200
H1064       H  0.21107026  0.66919136  0.02201384     0.04200
C1065       C  0.46390949  0.72974022  0.47980738     0.86400
C1066       C  0.47404983  0.77070675  0.46597145    -0.53800
C1067       C  0.01116250  0.78678374  0.45328311     0.09300
C1068       C  0.03727429  0.76258614  0.45670389     0.20300
C1069       C  0.46413362  0.69666254  0.46350232    -0.54500
C1070       C  0.00382243  0.71383915  0.45097903     0.09500
C1071       C  0.00517409  0.74317818  0.49268930    -0.54100
C1072       C  0.04400498  0.76282589  0.48140035     0.10000
H1073       H  0.45196579  0.78396212  0.46528973     0.14500
H1074       H  0.06818875  0.77557570  0.44713248     0.00300
H1075       H  0.43621043  0.66339934  0.46088059     0.14800
H1076       H  0.00408308  0.73657027  0.50984890     0.14600
C1077       C  0.28658235  0.74812837  0.47807501     0.86400
C1078       C  0.24922102  0.71693381  0.46245208    -0.53800
C1079       C  0.22837980  0.73584278  0.45200958     0.09300
C1080       C  0.24693186  0.78457295  0.45882444     0.20300
C1081       C  0.31843959  0.78883596  0.46391585    -0.54500
C1082       C  0.29747656  0.80873686  0.45398549     0.09500
C1083       C  0.26576814  0.76667445  0.49348932    -0.54100
C1084       C  0.24388835  0.78470830  0.48372258     0.10000
H1085       H  0.24050136  0.68280247  0.45990101     0.14500
H1086       H  0.22983173  0.79940166  0.45070802     0.00300
H1087       H  0.35369682  0.80086925  0.46233818     0.14800
H1088       H  0.27292325  0.77015194  0.51063667     0.14600
C1089       C  0.26956462  0.54678856  0.47737694     0.86400
C1090       C  0.29321894  0.54224002  0.45725501    -0.53800
C1091       C  0.26777435  0.00206751  0.44612251     0.09300
C1092       C  0.22136141  0.97125727  0.45706400     0.20300
C1093       C  0.22464923  0.53833480  0.46867603    -0.54500
C1094       C  0.19915084  0.99969604  0.45744586     0.09500
C1095       C  0.25800820  0.00617295  0.49070923    -0.54100
C1096       C  0.23144913  0.96639258  0.48109474     0.10000
H1097       H  0.32573553  0.56870264  0.45203598     0.14500
H1098       H  0.20002959  0.93864383  0.44961330     0.00300
H1099       H  0.21588020  0.56394317  0.46809168     0.14800
H1100       H  0.27416501  0.00891894  0.50604025     0.14600
O1101       O  0.09152568  0.77160854  0.54014422    -0.81900
C1102       C  0.21223015  0.92463761  0.49432340     0.97500
O1103       O  0.17062392  0.89813618  0.49499366    -0.71000
O1104       O  0.09294163  0.82311679  0.50318627    -0.74600
Al1105     Al  0.13946454  0.86650483  0.52121095     1.49000
C1106       C  0.08621394  0.78864795  0.49336101     0.92700
O1107       O  0.18577384  0.77459098  0.50704831    -0.80800
O1108       O  0.23474648  0.82798856  0.54334759    -0.74400
Al1109     Al  0.14132655  0.77901212  0.52351809     1.90100
O1110       O  0.23716086  0.84343066  0.49940887    -0.73400
O1111       O  0.22689680  0.89894196  0.55133382    -0.73300
O1112       O  0.23728938  0.91897064  0.50716863    -0.78900
O1113       O  0.17817843  0.91575161  0.53937482    -0.77100
O1114       O  0.16984848  0.83826849  0.52323362    -1.13300
O1115       O  0.10549588  0.83897354  0.54706736    -0.72500
C1116       C  0.08327164  0.79769403  0.55060675     0.98300
C1117       C  0.22051596  0.80211759  0.49680625     0.94700
Al1118     Al  0.22889337  0.86965314  0.52518424     1.55600
O1119       O  0.11132812  0.77319028  0.49652571    -0.77100
C1120       C  0.20921920  0.92275987  0.55231414     0.98800
C1121       C  0.20791581  0.79330631  0.55379862     0.93700
O1122       O  0.16669132  0.77553924  0.55063893    -0.82400
C1123       C  0.20773071  0.60685282  0.23293642     0.86400
C1124       C  0.19640242  0.63559458  0.24732194    -0.53800
C1125       C  0.15544243  0.61160541  0.25741215     0.09300
C1126       C  0.13076884  0.56118932  0.25191304     0.20300
C1127       C  0.20394886  0.57022359  0.24833519    -0.54500
C1128       C  0.16379991  0.54684467  0.25845804     0.09500
C1129       C  0.16826731  0.58509474  0.21749045    -0.54100
C1130       C  0.12805875  0.55913846  0.22707585     0.10000
H1131       H  0.21886051  0.67087954  0.24954900     0.14500
H1132       H  0.09813890  0.54013047  0.25992441     0.00300
H1133       H  0.23236231  0.56734752  0.25300776     0.14800
H1134       H  0.17071703  0.59936002  0.20160881     0.14600
C1135       C  0.39452869  0.79522185  0.23326464     0.86400
C1136       C  0.43729143  0.80888690  0.24683976    -0.53800
C1137       C  0.45197614  0.84722133  0.25891244     0.09300
C1138       C  0.42339950  0.86876184  0.25472743     0.20300
C1139       C  0.36092062  0.79324234  0.25019534    -0.54500
C1140       C  0.37623370  0.83187223  0.26157742     0.09500
C1141       C  0.40595736  0.83566035  0.21925121    -0.54100
C1142       C  0.42288257  0.87453214  0.22988561     0.10000
H1143       H  0.45277894  0.78890225  0.24725211     0.14500
H1144       H  0.43316999  0.89999160  0.26311043     0.00300
H1145       H  0.32963677  0.76326905  0.25393166     0.14800
H1146       H  0.40103387  0.83381718  0.20195540     0.14600
C1147       C  0.40346062  0.60961980  0.23276436     0.86400
C1148       C  0.37142515  0.56453824  0.24369078    -0.53800
C1149       C  0.39234303  0.54583669  0.25442331     0.09300
C1150       C  0.44340348  0.57315866  0.25169858     0.20300
C1151       C  0.43491683  0.63827224  0.25094599    -0.54500
C1152       C  0.45615524  0.61916451  0.26071766     0.09500
C1153       C  0.43299673  0.60059493  0.21767932    -0.54100
C1154       C  0.45205081  0.57919155  0.22709519     0.10000
H1155       H  0.33570769  0.54992322  0.24331088     0.14500
H1156       H  0.46235226  0.55992423  0.25983314     0.00300
H1157       H  0.43776585  0.66898548  0.25654491     0.14800
H1158       H  0.44050246  0.61297774  0.20125170     0.14600
O1159       O  0.43170204  0.92391150  0.16975607    -0.81900
C1160       C  0.08666940  0.54047520  0.21417583     0.97500
O1161       O  0.05924342  0.49908481  0.21366237    -0.71000
O1162       O  0.98116522  0.92326935  0.20631649    -0.74600
Al1163     Al  0.02520676  0.96908014  0.18807695     1.49000
C1164       C  0.44868935  0.91630000  0.21703982     0.92700
O1165       O  0.43889267  0.51940697  0.20399046    -0.80800
O1166       O  0.49484890  0.56838152  0.16675788    -0.74400
Al1167     Al  0.44076562  0.97366968  0.18712876     1.90100
O1168       O  0.50866275  0.56979327  0.21030054    -0.73400
O1169       O  0.06434433  0.55887837  0.15814510    -0.73300
O1170       O  0.08175904  0.56662514  0.20189840    -0.78900
O1171       O  0.07609205  0.50652991  0.16970002    -0.77100
O1172       O  0.00062916  0.50253087  0.18627110    -1.13300
O1173       O  0.49810727  0.93545254  0.16200613    -0.72500
C1174       C  0.45672356  0.91497541  0.15853235     0.98300
C1175       C  0.46763656  0.55445251  0.21355568     0.94700
Al1176     Al  0.03471244  0.56160348  0.18409102     1.55600
O1177       O  0.43427868  0.94241052  0.21415805    -0.77100
C1178       C  0.08631583  0.53924436  0.15737826     0.98800
C1179       C  0.45939634  0.54349834  0.15666573     0.93700
O1180       O  0.43880923  0.50216810  0.15990275    -0.82400
C1181       C  0.06198517  0.65083820  0.37953861     0.02200
C1182       C  0.10655955  0.66063117  0.37776792     0.02200
C1183       C  0.12190958  0.65722677  0.35694140    -0.18300
C1184       C  0.09558688  0.64878203  0.33797108     0.02200
C1185       C  0.05246197  0.64339067  0.34010043     0.02200
C1186       C  0.03601159  0.64177443  0.36088694    -0.18300
H1187       H  0.00429475  0.63972378  0.36270775     0.04200
H1188       H  0.15511950  0.66277203  0.35539958     0.04200
C1189       C  0.33988232  0.91503823  0.37756396     0.02200
C1190       C  0.34045195  0.95489665  0.37270849     0.02200
C1191       C  0.34565699  0.96932019  0.35100971    -0.18300
C1192       C  0.34869647  0.94445424  0.33379062     0.02200
C1193       C  0.34438833  0.90261088  0.33836763     0.02200
C1194       C  0.34057694  0.88896279  0.36030760    -0.18300
H1195       H  0.33713070  0.85712799  0.36408705     0.04200
H1196       H  0.34620186  0.99991475  0.34745343     0.04200
C1197       C  0.06220749  0.90647490  0.37836053     0.02200
C1198       C  0.09702077  0.95235361  0.37936072     0.02200
C1199       C  0.11035843  0.97650270  0.35992234    -0.18300
C1200       C  0.09429234  0.95780955  0.33954135     0.02200
C1201       C  0.05719538  0.91414894  0.33836652     0.02200
C1202       C  0.04300093  0.88869264  0.35769805    -0.18300
H1203       H  0.01766081  0.85433253  0.35628737     0.04200
H1204       H  0.13470025  0.01086958  0.36059902     0.04200
C1205       C  0.29134911  0.88678642  0.81144609     0.86400
C1206       C  0.30267635  0.92706077  0.79624057    -0.53800
C1207       C  0.34237912  0.94341549  0.78495855     0.09300
C1208       C  0.36699828  0.91876043  0.79105999     0.20300
C1209       C  0.29331761  0.85312606  0.79628682    -0.54500
C1210       C  0.33297709  0.86996460  0.78558134     0.09500
C1211       C  0.33173428  0.90239419  0.82617319    -0.54100
C1212       C  0.37158854  0.92170620  0.81591651     0.10000
H1213       H  0.28059074  0.94004233  0.79434421     0.14500
H1214       H  0.39919421  0.93009786  0.78295788     0.00300
H1215       H  0.26476388  0.82076921  0.79267613     0.14800
H1216       H  0.32851564  0.89381877  0.84313329     0.14600
C1217       C  0.10231025  0.70350817  0.81313087     0.86400
C1218       C  0.13678500  0.69359440  0.80245879    -0.53800
C1219       C  0.11802434  0.65453306  0.79085990     0.09300
C1220       C  0.06698511  0.62936068  0.79155494     0.20300
C1221       C  0.07323787  0.70218981  0.79412114    -0.54500
C1222       C  0.05495387  0.66332000  0.78282670     0.09500
C1223       C  0.07151427  0.66222552  0.82653616    -0.54100
C1224       C  0.05509412  0.62323414  0.81584858     0.10000
H1225       H  0.17240216  0.71637093  0.80331770     0.14500
H1226       H  0.04995490  0.59808967  0.78223893     0.00300
H1227       H  0.06881003  0.72964492  0.78951454     0.14800
H1228       H  0.06147962  0.66370807  0.84289456     0.14600
C1229       C  0.10617925  0.89731861  0.81175448     0.86400
C1230       C  0.06419816  0.86824828  0.79777745    -0.53800
C1231       C  0.04804536  0.89172338  0.78686536     0.09300
C1232       C  0.07491240  0.94173919  0.79215506     0.20300
C1233       C  0.13946412  0.93250397  0.79593980    -0.54500
C1234       C  0.12322736  0.95593347  0.78581738     0.09500
C1235       C  0.09343003  0.92363162  0.82685890    -0.54100
C1236       C  0.07418393  0.94444961  0.81706027     0.10000
H1237       H  0.04963221  0.83270301  0.79679005     0.14500
H1238       H  0.06415499  0.96285628  0.78400324     0.00300
H1239       H  0.17163768  0.93657307  0.79198420     0.14800
H1240       H  0.10629501  0.93187271  0.84308657     0.14600
O1241       O  0.42013040  0.93149448  0.87407073    -0.81900
C1242       C  0.03860732  0.58170458  0.82850081     0.97500
O1243       O  0.99739751  0.55478614  0.82987885    -0.71000
O1244       O  0.42206697  0.48033302  0.83857409    -0.74600
Al1245     Al  0.47188304  0.52501189  0.85563427     1.49000
C1246       C  0.41363455  0.94704565  0.82846938     0.92700
O1247       O  0.01493630  0.93342814  0.84047664    -0.80800
O1248       O  0.06402162  0.98529392  0.87609205    -0.74400
Al1249     Al  0.46983159  0.93700740  0.85719811     1.90100
O1250       O  0.06469366  0.00208821  0.83195931    -0.73400
O1251       O  0.06077533  0.55734131  0.88470703    -0.73300
O1252       O  0.06576993  0.57655119  0.84020471    -0.78900
O1253       O  0.01306832  0.57630957  0.87390378    -0.77100
O1254       O  0.00115311  0.49696736  0.85728094    -1.13300
O1255       O  0.44162834  0.00021403  0.88293678    -0.72500
C1256       C  0.41502271  0.95934394  0.88503218     0.98300
C1257       C  0.04953462  0.96102194  0.82998153     0.94700
Al1258     Al  0.06004777  0.52781208  0.85832160     1.55600
O1259       O  0.44010545  0.93272363  0.83022274    -0.77100
C1260       C  0.04463927  0.58226642  0.88638654     0.98800
C1261       C  0.03623840  0.95098666  0.88674427     0.93700
O1262       O  0.99512813  0.93515303  0.88407548    -0.82400
C1263       C  0.23024128  0.96479975  0.56585797     0.86400
C1264       C  0.26914262  0.97138693  0.58038198    -0.53800
C1265       C  0.28968223  0.51108761  0.59138202     0.09300
C1266       C  0.27239400  0.54197406  0.58518683     0.20300
C1267       C  0.20063977  0.97345451  0.58138367    -0.54500
C1268       C  0.22247850  0.51506529  0.59115803     0.09500
C1269       C  0.24989690  0.50487004  0.55073542    -0.54100
C1270       C  0.27334392  0.54487493  0.56044693     0.10000
H1271       H  0.27550764  0.94480793  0.58408987     0.14500
H1272       H  0.29185237  0.57495364  0.59290563     0.00300
H1273       H  0.16585120  0.94942983  0.58443018     0.14800
H1274       H  0.24032736  0.50169060  0.53395944     0.14600
C1275       C  0.04303283  0.77761562  0.56541008     0.86400
C1276       C  0.04030686  0.80699890  0.58311601    -0.53800
C1277       C  0.50093701  0.78763707  0.59498348     0.09300
C1278       C  0.47007056  0.73831287  0.58848789     0.20300
C1279       C  0.03651534  0.73630662  0.57784879    -0.54500
C1280       C  0.49959951  0.71750287  0.59093110     0.09500
C1281       C  0.50184946  0.76283927  0.55259667    -0.54100
C1282       C  0.46306291  0.73991120  0.56380283     0.10000
H1283       H  0.06708532  0.84045447  0.58645053     0.14500
H1284       H  0.43857773  0.72060874  0.59793215     0.00300
H1285       H  0.06172582  0.72694527  0.57853472     0.14800
H1286       H  0.50258880  0.77300993  0.53596078     0.14600
C1287       C  0.22653216  0.76995172  0.56716405     0.86400
C1288       C  0.19642711  0.73638421  0.58467467    -0.53800
C1289       C  0.21616887  0.71632024  0.59523103     0.09300
C1290       C  0.26369987  0.73141450  0.58697863     0.20300
C1291       C  0.26968638  0.80229895  0.57944600    -0.54500
C1292       C  0.28871515  0.78198486  0.59038159     0.09500
C1293       C  0.23911241  0.74305675  0.55225596    -0.54100
C1294       C  0.26091577  0.72481913  0.56208308     0.10000
H1295       H  0.16446247  0.73181063  0.58951109     0.14500
H1296       H  0.27790080  0.71365694  0.59546295     0.00300
H1297       H  0.28278224  0.83777613  0.57995257     0.14800
H1298       H  0.22936947  0.73723823  0.53541044     0.14600
O1299       O  0.27937291  0.61560351  0.49191072    -0.81900
C1300       C  0.42065252  0.71660157  0.55159558     0.97500
O1301       O  0.41372904  0.68414030  0.53988352    -0.71000
O1302       O  0.33496821  0.61147598  0.54736484    -0.74600
Al1303     Al  0.36549671  0.64316100  0.52167963     1.49000
C1304       C  0.29323513  0.58623393  0.54772938     0.92700
O1305       O  0.26851133  0.66813451  0.54449700    -0.80800
O1306       O  0.34479793  0.74134279  0.49599120    -0.74400
Al1307     Al  0.27810500  0.64393305  0.51840126     1.90100
O1308       O  0.32279923  0.73691418  0.54001822    -0.73400
O1309       O  0.41787385  0.73934965  0.50581626    -0.73300
O1310       O  0.39571451  0.73276591  0.54997172    -0.78900
O1311       O  0.39775628  0.67126073  0.49607094    -0.77100
O1312       O  0.33694949  0.67334166  0.52107693    -1.13300
O1313       O  0.32511206  0.59475554  0.50327375    -0.72500
C1314       C  0.29391648  0.58915033  0.49082193     0.98300
C1315       C  0.28596928  0.70885911  0.54878506     0.94700
Al1316     Al  0.36764514  0.73248375  0.52285980     1.55600
O1317       O  0.26837780  0.59351797  0.53553325    -0.77100
C1318       C  0.42337375  0.71253549  0.49414545     0.98800
C1319       C  0.30405252  0.72401366  0.49164837     0.93700
O1320       O  0.27578338  0.68816288  0.50087633    -0.82400
C1321       C  0.39611699  0.83780258  0.70693837     0.02200
C1322       C  0.44175168  0.85130304  0.70860858     0.02200
C1323       C  0.46567615  0.85631850  0.68947056    -0.18300
C1324       C  0.44477566  0.84564845  0.66901573     0.02200
C1325       C  0.39908079  0.83153428  0.66732025     0.02200
C1326       C  0.37553320  0.82809540  0.68639659    -0.18300
H1327       H  0.34058392  0.81754907  0.68526932     0.04200
H1328       H  0.50038606  0.86582723  0.69060470     0.04200
C1329       C  0.17793301  0.60505758  0.71408035     0.02200
C1330       C  0.18139716  0.56681034  0.71088900     0.02200
C1331       C  0.18727017  0.55513372  0.68981115    -0.18300
C1332       C  0.18579003  0.57777682  0.67118160     0.02200
C1333       C  0.18169667  0.61586579  0.67427384     0.02200
C1334       C  0.17825530  0.62899458  0.69558201    -0.18300
H1335       H  0.17460572  0.65767472  0.69767466     0.04200
H1336       H  0.19203850  0.52709971  0.68801471     0.04200
C1337       C  0.45262371  0.59444609  0.70529163     0.02200
C1338       C  0.41185991  0.55346700  0.70662952     0.02200
C1339       C  0.38741787  0.53606016  0.68725235    -0.18300
C1340       C  0.40225173  0.55850698  0.66708621     0.02200
C1341       C  0.44436319  0.59825044  0.66561304     0.02200
C1342       C  0.46975432  0.61297471  0.68470111    -0.18300
H1343       H  0.50291350  0.64162282  0.68372612     0.04200
H1344       H  0.35588208  0.50508526  0.68785094     0.04200
C1345       C  0.35515677  0.84662799  0.64031496    -0.12300
C1346       C  0.37521611  0.82198963  0.64597097     0.04700
C1347       C  0.36938282  0.78746208  0.63189716    -0.07600
C1348       C  0.34970172  0.78315146  0.61147937    -0.08400
C1349       C  0.32463389  0.80331462  0.60713787    -0.02900
C1350       C  0.32748501  0.83555703  0.62199494     0.03900
N1351       N  0.29803957  0.85250991  0.62071508     0.66400
H1352       H  0.35748051  0.87179620  0.65137573     0.15300
H1353       H  0.34845147  0.75875703  0.60027939     0.15000
N1354       N  0.37442931  0.75151432  0.63952757     0.74100
O1355       O  0.25892236  0.82931621  0.62798085    -0.39300
O1356       O  0.31363635  0.89332408  0.61733734    -0.39300
O1357       O  0.35858149  0.73468147  0.65794004    -0.40000
O1358       O  0.38184684  0.72883738  0.62605055    -0.40100
C1359       C  0.22773771  0.71241798  0.63484425    -0.12300
C1360       C  0.20042653  0.69314513  0.61658319     0.04700
C1361       C  0.16210577  0.65082832  0.61873655    -0.07600
C1362       C  0.15421403  0.62695730  0.63834135    -0.08400
C1363       C  0.18443345  0.64463984  0.65575894    -0.02900
C1364       C  0.22034820  0.68868808  0.65428954     0.03900
N1365       N  0.25160741  0.70859296  0.67174077     0.66400
H1366       H  0.25663770  0.74529718  0.63366977     0.15300
H1367       H  0.12607805  0.59343063  0.63946958     0.15000
N1368       N  0.13281014  0.63036582  0.60075044     0.74100
O1369       O  0.27279825  0.69077381  0.67876360    -0.39300
O1370       O  0.25902084  0.74484788  0.67975034    -0.39300
O1371       O  0.13594252  0.60188957  0.58959167    -0.40000
O1372       O  0.09827120  0.63307292  0.59921702    -0.40100
C1373       C  0.47911054  0.78333999  0.63357279    -0.12300
C1374       C  0.49128285  0.80741175  0.61403479     0.04700
C1375       C  0.49315530  0.84866856  0.61337015    -0.07600
C1376       C  0.47920081  0.86258834  0.63167541    -0.08400
C1377       C  0.46759474  0.83774790  0.65108343    -0.02900
C1378       C  0.47147937  0.80000485  0.65242043     0.03900
N1379       N  0.46672665  0.77772473  0.67277209     0.66400
H1380       H  0.47300641  0.75033982  0.63426203     0.15300
H1381       H  0.47665993  0.89208901  0.63066086     0.15000
N1382       N  0.01336744  0.87624730  0.59573961     0.74100
O1383       O  0.42887487  0.75359009  0.68121591    -0.39300
O1384       O  0.50087723  0.78888849  0.68413714    -0.39300
O1385       O  0.98614812  0.87866736  0.58313942    -0.40000
O1386       O  0.05381173  0.90635876  0.59506458    -0.40100
C1387       C  0.45923901  0.61177852  0.62441759    -0.12300
C1388       C  0.46175456  0.62830267  0.64569482     0.04700
C1389       C  0.48493392  0.67522311  0.64802860    -0.07600
C1390       C  0.50501386  0.70263376  0.62987466    -0.08400
C1391       C  0.49283945  0.68589640  0.60883973    -0.02900
C1392       C  0.47117175  0.63978586  0.60599520     0.03900
N1393       N  0.46179197  0.62106224  0.58464565     0.66400
H1394       H  0.44834923  0.57752354  0.62178675     0.15300
H1395       H  0.52639160  0.73801361  0.63213538     0.15000
N1396       N  0.48618762  0.69585765  0.66836702     0.74100
O1397       O  0.97305867  0.59996832  0.57560555    -0.39300
O1398       O  0.42587501  0.61202814  0.57543693    -0.39300
O1399       O  0.52285345  0.72571988  0.67597304    -0.40000
O1400       O  0.45072388  0.68402418  0.67885417    -0.40100
C1401       C  0.31095820  0.54093263  0.62869983    -0.12300
C1402       C  0.31828121  0.52020260  0.61086619     0.04700
C1403       C  0.35123080  0.50814691  0.61253383    -0.07600
C1404       C  0.37464141  0.51620868  0.63230136    -0.08400
C1405       C  0.37083099  0.54195748  0.64867441    -0.02900
C1406       C  0.33753143  0.55282166  0.64718704     0.03900
N1407       N  0.33016938  0.57576043  0.66442093     0.66400
H1408       H  0.28473110  0.54867877  0.62835499     0.15300
H1409       H  0.39946045  0.50661765  0.63406252     0.15000
N1410       N  0.36419473  0.49182171  0.59407235     0.74100
O1411       O  0.34541850  0.61693467  0.66274490    -0.39300
O1412       O  0.30153486  0.55385581  0.67892837    -0.39300
O1413       O  0.36243577  0.50457290  0.57499877    -0.40000
O1414       O  0.38489941  0.47141268  0.59699229    -0.40100
C1415       C  0.17536597  0.50072266  0.62418871    -0.12300
C1416       C  0.20417565  0.53083576  0.60861467     0.04700
C1417       C  0.22267345  0.57661781  0.61250433    -0.07600
C1418       C  0.21864553  0.59117029  0.63317500    -0.08400
C1419       C  0.18986167  0.56122824  0.64908190    -0.02900
C1420       C  0.16682100  0.51531709  0.64384915     0.03900
N1421       N  0.13882638  0.98197172  0.65934793     0.66400
H1422       H  0.16377088  0.96490058  0.62243519     0.15300
H1423       H  0.23787853  0.62624698  0.63653693     0.15000
N1424       N  0.24446514  0.60850106  0.59539088     0.74100
O1425       O  0.09893686  0.97280143  0.65932774    -0.39300
O1426       O  0.14806512  0.95431778  0.66726278    -0.39300
O1427       O  0.22657569  0.60179689  0.57683708    -0.40000
O1428       O  0.28024143  0.64432370  0.59902463    -0.40100
C1429       C  0.97922840  0.83124559  0.73619829    -0.12300
C1430       C  0.46484754  0.85754820  0.72993985     0.04700
C1431       C  0.47107040  0.89084300  0.74464655    -0.07600
C1432       C  0.49152158  0.89450877  0.76477598    -0.08400
C1433       C  0.01273634  0.87435541  0.76929946    -0.02900
C1434       C  0.00389352  0.83847102  0.75538726     0.03900
N1435       N  0.02107663  0.80999620  0.75966307     0.66400
H1436       H  0.97298795  0.80374798  0.72578632     0.15300
H1437       H  0.49385020  0.91937840  0.77597114     0.15000
N1438       N  0.46316037  0.92527366  0.73804628     0.74100
O1439       O  0.99608158  0.77264300  0.76840621    -0.39300
O1440       O  0.05597306  0.81701368  0.74999329    -0.39300
O1441       O  0.43717481  0.93261320  0.74905027    -0.40000
O1442       O  0.49071376  0.95504847  0.72535722    -0.40100
C1443       C  0.12077092  0.96681097  0.74672183    -0.12300
C1444       C  0.14405365  0.98266669  0.76618668     0.04700
C1445       C  0.18618121  0.52378528  0.76680542    -0.07600
C1446       C  0.19962404  0.55001743  0.74784854    -0.08400
C1447       C  0.17344346  0.53532089  0.72888608    -0.02900
C1448       C  0.13319939  0.99328588  0.72814981     0.03900
N1449       N  0.10437774  0.97715640  0.70960301     0.66400
H1450       H  0.09083376  0.93446156  0.74628446     0.15300
H1451       H  0.22874697  0.58299844  0.74833100     0.15000
N1452       N  0.21122478  0.54077495  0.78640956     0.74100
O1453       O  0.08948678  0.93773133  0.70342455    -0.39300
O1454       O  0.08563453  0.99775612  0.70302546    -0.39300
O1455       O  0.24473597  0.53690376  0.78963136    -0.40000
O1456       O  0.20529453  0.56679670  0.79817130    -0.40100
C1457       C  0.49096005  0.64538970  0.76187333    -0.12300
C1458       C  0.03039205  0.65545879  0.76229512     0.04700
C1459       C  0.05031951  0.65452727  0.74252800    -0.07600
C1460       C  0.52536701  0.63091632  0.72382561    -0.08400
C1461       C  0.48037837  0.61808590  0.72458039    -0.02900
C1462       C  0.46379158  0.62822468  0.74337815     0.03900
N1463       N  0.42049231  0.62300893  0.74366529     0.66400
H1464       H  0.96994690  0.64338025  0.77786589     0.15300
H1465       H  0.53900250  0.62462982  0.70932670     0.15000
N1466       N  0.09766696  0.67704344  0.74000153     0.74100
O1467       O  0.39299690  0.59923641  0.75823160    -0.39300
O1468       O  0.41409202  0.65037187  0.73323194    -0.39300
O1469       O  0.11457639  0.66237724  0.72668226    -0.40000
O1470       O  0.12096238  0.71648015  0.74658679    -0.40100
C1471       C  0.13280610  0.58583261  0.74841492    -0.12300
C1472       C  0.16883306  0.61774341  0.73607030     0.04700
C1473       C  0.19368129  0.66139507  0.74452815    -0.07600
C1474       C  0.17929159  0.67279153  0.76361611    -0.08400
C1475       C  0.14204852  0.64078950  0.77534123    -0.02900
C1476       C  0.12204671  0.59618250  0.76861011     0.03900
N1477       N  0.09408262  0.56073691  0.78307621     0.66400
H1478       H  0.11310944  0.55216045  0.74264071     0.15300
H1479       H  0.19609849  0.70720075  0.76855135     0.15000
N1480       N  0.23244531  0.69499682  0.73356540     0.74100
O1481       O  0.05722373  0.52925985  0.77652889    -0.39300
O1482       O  0.11115357  0.55564698  0.80012272    -0.39300
O1483       O  0.23364423  0.72989852  0.72723095    -0.40000
O1484       O  0.26832285  0.69478974  0.73518347    -0.40100
C1485       C  0.40585764  0.49963463  0.76212081    -0.12300
C1486       C  0.35916126  0.97646398  0.76624850     0.04700
C1487       C  0.33104342  0.98055437  0.75091252    -0.07600
C1488       C  0.34915143  0.00608934  0.73178635    -0.08400
C1489       C  0.39489752  0.52736392  0.72754885    -0.02900
C1490       C  0.42268557  0.52051172  0.74188116     0.03900
N1491       N  0.46668296  0.53095183  0.73554974     0.66400
H1492       H  0.42871126  0.49794718  0.77339128     0.15300
H1493       H  0.32711536  0.00981874  0.72071141     0.15000
N1494       N  0.28386513  0.95711893  0.75360991     0.74100
O1495       O  0.49612164  0.54014417  0.74983740    -0.39300
O1496       O  0.47461804  0.52543923  0.71607624    -0.39300
O1497       O  0.26482903  0.97834219  0.75851476    -0.40000
O1498       O  0.26103037  0.91844454  0.74603028    -0.40100
C1499       C  0.33388756  0.87011910  0.74556911    -0.12300
C1500       C  0.33723257  0.85095745  0.76502991     0.04700
C1501       C  0.35230382  0.82070948  0.76452386    -0.07600
C1502       C  0.36753885  0.81309214  0.74483274    -0.08400
C1503       C  0.37016806  0.83736932  0.72603322    -0.02900
C1504       C  0.35123842  0.86457058  0.72618991     0.03900
N1505       N  0.35458808  0.89112467  0.70764443     0.66400
H1506       H  0.32184476  0.89304073  0.74581666     0.15300
H1507       H  0.38072697  0.79102690  0.74464045     0.15000
N1508       N  0.35608953  0.80072177  0.78410487     0.74100
O1509       O  0.32006286  0.88333663  0.69739436    -0.39300
O1510       O  0.39197968  0.92289009  0.70171072    -0.39300
O1511       O  0.32833227  0.76043918  0.78796093    -0.40000
O1512       O  0.39160097  0.82022431  0.79498507    -0.40100
C1513       C  0.45313351  0.60753018  0.30008349    -0.12300
C1514       C  0.47751779  0.63284451  0.28213000     0.04700
C1515       C  0.02535075  0.66897439  0.28384849    -0.07600
C1516       C  0.04723278  0.67329542  0.30362499    -0.08400
C1517       C  0.02549522  0.64354705  0.32106391    -0.02900
C1518       C  0.47396226  0.60927306  0.31970060     0.03900
N1519       N  0.44669742  0.58147737  0.33718031     0.66400
H1520       H  0.41787112  0.58408526  0.29847933     0.15300
H1521       H  0.08217452  0.69819952  0.30484554     0.15000
N1522       N  0.04991931  0.69606813  0.26568284     0.74100
O1523       O  0.41682905  0.58746048  0.34512139    -0.39300
O1524       O  0.44978851  0.54891018  0.34352585    -0.39300
O1525       O  0.05937679  0.73592955  0.26496598    -0.40000
O1526       O  0.07046599  0.68365957  0.25340171    -0.40100
C1527       C  0.39458324  0.98788156  0.27685721    -0.12300
C1528       C  0.37125604  0.50902304  0.27095350     0.04700
C1529       C  0.33513266  0.50172717  0.28450165    -0.07600
C1530       C  0.32674462  0.47762641  0.30397569    -0.08400
C1531       C  0.35472368  0.96295903  0.31126918    -0.02900
C1532       C  0.38973611  0.96900582  0.29752238     0.03900
N1533       N  0.42460330  0.96273330  0.30535437     0.66400
H1534       H  0.42083682  0.99047010  0.26646551     0.15300
H1535       H  0.29936995  0.47282657  0.31425257     0.15000
N1536       N  0.30899373  0.52154549  0.28007587     0.74100
O1537       O  0.43242672  0.93588821  0.29564664    -0.39300
O1538       O  0.45538624  0.99324753  0.31631798    -0.39300
O1539       O  0.27096311  0.49832819  0.27173852    -0.40000
O1540       O  0.31902431  0.55783473  0.28903181    -0.40100
C1541       C  0.00433405  0.90931496  0.28310694    -0.12300
C1542       C  0.48550190  0.86377063  0.27743141     0.04700
C1543       C  0.49483788  0.83615886  0.29074221    -0.07600
C1544       C  0.01805826  0.85340439  0.30998823    -0.08400
C1545       C  0.03147239  0.89640982  0.31738372    -0.02900
C1546       C  0.02212398  0.92356570  0.30396972     0.03900
N1547       N  0.02769951  0.96457492  0.31187416     0.66400
H1548       H  0.00149515  0.93265762  0.27267651     0.15300
H1549       H  0.02496080  0.83188652  0.31983257     0.15000
N1550       N  0.48022050  0.79143167  0.28489125     0.74100
O1551       O  0.03975111  0.99704153  0.29908669    -0.39300
O1552       O  0.01573370  0.96678120  0.33103399    -0.39300
O1553       O  0.50763514  0.78225025  0.27663838    -0.40000
O1554       O  0.44367757  0.76053784  0.29221491    -0.40100
C1555       C  0.37905943  0.83733902  0.30195169    -0.12300
C1556       C  0.35674639  0.83525624  0.28256082     0.04700
C1557       C  0.32288091  0.84564941  0.28322281    -0.07600
C1558       C  0.31656551  0.86425119  0.30218721    -0.08400
C1559       C  0.34401067  0.87307934  0.32057078    -0.02900
C1560       C  0.37305292  0.85604781  0.32090573     0.03900
N1561       N  0.40061556  0.86218793  0.33934568     0.66400
H1562       H  0.40439558  0.82826205  0.30184448     0.15300
H1563       H  0.29191535  0.87426333  0.30208575     0.15000
N1564       N  0.29619702  0.83952863  0.26446731     0.74100
O1565       O  0.39697907  0.82897518  0.34935168    -0.39300
O1566       O  0.42993519  0.90068689  0.34508507    -0.39300
O1567       O  0.25986812  0.80352207  0.26220299    -0.40000
O1568       O  0.30445240  0.87240146  0.25263518    -0.40100
C1569       C  0.15916837  0.55100445  0.29803424    -0.12300
C1570       C  0.15859871  0.52632605  0.28006528     0.04700
C1571       C  0.14403591  0.98203518  0.28263524    -0.07600
C1572       C  0.12653887  0.96118364  0.30268874    -0.08400
C1573       C  0.11890451  0.98359619  0.31970211    -0.02900
C1574       C  0.13733053  0.53042685  0.31736391     0.03900
N1575       N  0.13170915  0.55718700  0.33330276     0.66400
H1576       H  0.17284342  0.58625940  0.29632391     0.15300
H1577       H  0.11634194  0.92651273  0.30447403     0.15000
N1578       N  0.14499293  0.95667495  0.26469188     0.74100
O1579       O  0.16390997  0.59518566  0.33782296    -0.39300
O1580       O  0.09383900  0.54527521  0.34113678    -0.39300
O1581       O  0.17469203  0.94639202  0.26389362    -0.40000
O1582       O  0.11163297  0.93728586  0.25234016    -0.40100
C1583       C  0.08204587  0.60946821  0.30237170    -0.12300
C1584       C  0.11212176  0.64330541  0.31630352     0.04700
C1585       C  0.15611204  0.67180973  0.30874004    -0.07600
C1586       C  0.16972076  0.66318963  0.28875394    -0.08400
C1587       C  0.13924094  0.62916223  0.27504713    -0.02900
C1588       C  0.09399037  0.60582351  0.28108695     0.03900
N1589       N  0.05982194  0.58095399  0.26535014     0.66400
H1590       H  0.04806266  0.58745754  0.30755207     0.15300
H1591       H  0.20450405  0.68269346  0.28433961     0.15000
N1592       N  0.18714962  0.71007986  0.32074934     0.74100
O1593       O  0.02350763  0.54740980  0.27106100    -0.39300
O1594       O  0.06414620  0.59532330  0.24606917    -0.39300
O1595       O  0.22166087  0.71206347  0.32836239    -0.40000
O1596       O  0.18581847  0.74526536  0.31895265    -0.40100
C1597       C  0.33275244  0.01033345  0.42429325    -0.12300
C1598       C  0.28616491  0.99175356  0.42596267     0.04700
C1599       C  0.25991258  0.96597497  0.40793794    -0.07600
C1600       C  0.28053885  0.96194757  0.38919661    -0.08400
C1601       C  0.32563765  0.97597917  0.38899996    -0.02900
C1602       C  0.35230116  0.00184125  0.40632298     0.03900
N1603       N  0.39920188  0.01971176  0.40587961     0.66400
H1604       H  0.35430498  0.02989033  0.43750250     0.15300
H1605       H  0.25984276  0.94072214  0.37609641     0.15000
N1606       N  0.21326993  0.93555805  0.40946925     0.74100
O1607       O  0.41610501  0.00278147  0.41781185    -0.39300
O1608       O  0.42396613  0.05726895  0.39728668    -0.39300
O1609       O  0.18903089  0.93424493  0.39395909    -0.40000
O1610       O  0.20183138  0.89945325  0.41893605    -0.40100
C1611       C  0.19402080  0.01400669  0.41878441    -0.12300
C1612       C  0.17213999  0.99837745  0.43864724     0.04700
C1613       C  0.12596271  0.98047314  0.43954916    -0.07600
C1614       C  0.10155293  0.96912323  0.41995597    -0.08400
C1615       C  0.12319456  0.97591598  0.39958103    -0.02900
C1616       C  0.17065966  0.00408116  0.39931240     0.03900
N1617       N  0.19733547  0.52564661  0.38055507     0.66400
H1618       H  0.23081352  0.53466973  0.41877319     0.15300
H1619       H  0.06564804  0.95292245  0.42070060     0.15000
N1620       N  0.10438608  0.97711599  0.45988343     0.74100
O1621       O  0.20825070  0.56505763  0.37611841    -0.39300
O1622       O  0.21766830  0.00627760  0.37151986    -0.39300
O1623       O  0.10161104  0.00969111  0.46647535    -0.40000
O1624       O  0.09466502  0.94527869  0.47273680    -0.40100
C1625       C  0.19514978  0.68096713  0.42086934    -0.12300
C1626       C  0.19439449  0.71334796  0.43418378     0.04700
C1627       C  0.16391253  0.72704000  0.42871636    -0.07600
C1628       C  0.14033428  0.71333771  0.40912533    -0.08400
C1629       C  0.13815318  0.67866623  0.39678910    -0.02900
C1630       C  0.16617942  0.66238242  0.40295132     0.03900
N1631       N  0.16721923  0.62840617  0.39069826     0.66400
H1632       H  0.21825391  0.66978421  0.42424487     0.15300
H1633       H  0.12182920  0.72882320  0.40415568     0.15000
N1634       N  0.15322752  0.75157984  0.44360591     0.74100
O1635       O  0.20250581  0.63697871  0.38094060    -0.39300
O1636       O  0.13260937  0.59077983  0.38864902    -0.39300
O1637       O  0.14721343  0.78197761  0.43660898    -0.40000
O1638       O  0.14370014  0.73884978  0.46316548    -0.40100
C1639       C  0.35794661  0.86132298  0.42740454    -0.12300
C1640       C  0.31846262  0.84825556  0.43902763     0.04700
C1641       C  0.29491536  0.86981930  0.43388900    -0.07600
C1642       C  0.29945174  0.88790711  0.41315196    -0.08400
C1643       C  0.33664981  0.89815742  0.40028829    -0.02900
C1644       C  0.36966005  0.89060935  0.40938315     0.03900
N1645       N  0.41546552  0.91553725  0.40239171     0.66400
H1646       H  0.37993876  0.84968226  0.43241036     0.15300
H1647       H  0.27459695  0.89501250  0.40765922     0.15000
N1648       N  0.27314708  0.88027667  0.45065186     0.74100
O1649       O  0.44570277  0.92243373  0.41582761    -0.39300
O1650       O  0.42651949  0.93806218  0.38499723    -0.39300
O1651       O  0.29625493  0.90654570  0.46563446    -0.40000
O1652       O  0.23313837  0.86998445  0.44862787    -0.40100
C1653       C  0.99083448  0.82018504  0.42246852    -0.12300
C1654       C  0.02367577  0.82196138  0.43630268     0.04700
C1655       C  0.06846314  0.85201657  0.43117723    -0.04600
C1656       C  0.07972542  0.87700954  0.41194169    -0.08400
C1657       C  0.04735901  0.87598740  0.39798929    -0.02900
C1658       C  0.00198676  0.84554824  0.40319511     0.03900
N1659       N  0.46822320  0.83946456  0.38995693     0.66400
H1660       H  0.45819020  0.80013988  0.42729931     0.15300
H1661       H  0.11440348  0.89824009  0.40821434     0.15000
N1662       N  0.10309205  0.85858935  0.44570601     0.74100
O1663       O  0.45213168  0.80563715  0.37791972    -0.39300
O1664       O  0.44391754  0.85500584  0.39487214    -0.39300
O1665       O  0.10876094  0.87948073  0.46319615    -0.40000
O1666       O  0.13120460  0.84831662  0.43995525    -0.40100
C1667       C  0.01968872  0.65631597  0.43620996    -0.12300
C1668       C  0.01242217  0.69195865  0.43267424     0.04700
C1669       C  0.01987545  0.71126825  0.41180565    -0.07600
C1670       C  0.03697387  0.69744033  0.39547202    -0.08400
C1671       C  0.04444542  0.66238952  0.39865656    -0.02900
C1672       C  0.03474680  0.64058721  0.41899147     0.03900
N1673       N  0.03989649  0.60297708  0.42216789     0.66400
H1674       H  0.01412146  0.64122101  0.45223466     0.15300
H1675       H  0.04398295  0.71404060  0.37974366     0.15000
N1676       N  0.00848600  0.74381771  0.40637990     0.74100
O1677       O  0.07003996  0.60577626  0.43454821    -0.39300
O1678       O  0.01744924  0.56849321  0.41089764    -0.39300
O1679       O  0.96785220  0.73192224  0.40542398    -0.40000
O1680       O  0.03633728  0.77799867  0.39597998    -0.40100
C1681       C  0.49680608  0.67813099  0.06482851    -0.12300
C1682       C  0.46820784  0.69511352  0.06179410     0.04700
C1683       C  0.44467776  0.69679837  0.08012040    -0.07600
C1684       C  0.45682029  0.69021649  0.10083716    -0.08400
C1685       C  0.47500176  0.66286790  0.10301248    -0.02900
C1686       C  0.49755950  0.65879380  0.08484049     0.03900
N1687       N  0.02738267  0.64532647  0.08857143     0.66400
H1688       H  0.02174874  0.68569288  0.05323051     0.15300
H1689       H  0.44154286  0.69578901  0.11490915     0.15000
N1690       N  0.40269600  0.69441463  0.07779318     0.74100
O1691       O  0.01486708  0.60905197  0.07897888    -0.39300
O1692       O  0.06654662  0.66721079  0.09581635    -0.39300
O1693       O  0.37554149  0.66845812  0.06377923    -0.40000
O1694       O  0.38824803  0.70785357  0.09301927    -0.40100
C1695       C  0.33683678  0.83498548  0.06297219    -0.12300
C1696       C  0.29175509  0.80081645  0.06313052     0.04700
C1697       C  0.26903294  0.79098948  0.08343390    -0.07600
C1698       C  0.29386899  0.80233660  0.10290600    -0.08400
C1699       C  0.33990775  0.83126061  0.10237011    -0.02900
C1700       C  0.35975094  0.85266354  0.08254461     0.03900
N1701       N  0.40298232  0.89171428  0.08214997     0.66400
H1702       H  0.35505037  0.84728736  0.04782360     0.15300
H1703       H  0.27738948  0.78933747  0.11841995     0.15000
N1704       N  0.22162512  0.77098111  0.08440176     0.74100
O1705       O  0.43547092  0.89092483  0.07369971    -0.39300
O1706       O  0.40674443  0.92859127  0.08664949    -0.39300
O1707       O  0.19999652  0.74624114  0.10026757    -0.40000
O1708       O  0.20277896  0.78501544  0.07187088    -0.40100
C1709       C  0.49498723  0.79852303  0.07029781    -0.12300
C1710       C  0.46176623  0.77790028  0.05429162     0.04700
C1711       C  0.42277246  0.78011309  0.05634987    -0.07600
C1712       C  0.41516773  0.79701447  0.07548322    -0.08400
C1713       C  0.44685350  0.81532776  0.09232330    -0.02900
C1714       C  0.48819751  0.81792817  0.08898420     0.03900
N1715       N  0.02290600  0.84505969  0.10403074     0.66400
H1716       H  0.02632525  0.80349231  0.06867081     0.15300
H1717       H  0.38314821  0.79404150  0.07736247     0.15000
N1718       N  0.38938994  0.76327821  0.03967074     0.74100
O1719       O  0.03295061  0.82362395  0.11707609    -0.39300
O1720       O  0.05036102  0.88562262  0.10063997    -0.39300
O1721       O  0.36972097  0.72291415  0.03438504    -0.40000
O1722       O  0.37826005  0.78864029  0.03072737    -0.40100
C1723       C  0.16669124  0.64505096  0.08551993    -0.12300
C1724       C  0.19688542  0.64933744  0.10171003     0.04700
C1725       C  0.24249404  0.67946756  0.09831010    -0.07600
C1726       C  0.25766296  0.70185248  0.07830709    -0.08400
C1727       C  0.22745848  0.69882604  0.06234540    -0.02900
C1728       C  0.18138724  0.66938800  0.06603688     0.03900
N1729       N  0.14892126  0.66338797  0.05012508     0.66400
H1730       H  0.13155323  0.62134041  0.08758554     0.15300
H1731       H  0.29300596  0.72418190  0.07586006     0.15000
N1732       N  0.27288068  0.69127841  0.11600356     0.74100
O1733       O  0.12703706  0.62647701  0.04064944    -0.39300
O1734       O  0.13534357  0.69051318  0.04925245    -0.39300
O1735       O  0.30865949  0.69127557  0.11360688    -0.40000
O1736       O  0.26717114  0.70853391  0.13278219    -0.40100
C1737       C  0.30186661  0.55347451  0.07633356    -0.12300
C1738       C  0.30250043  0.52380892  0.06123441     0.04700
C1739       C  0.32752686  0.50339231  0.06647441    -0.07600
C1740       C  0.35169841  0.51401630  0.08586293    -0.08400
C1741       C  0.34951155  0.54241529  0.10110404    -0.02900
C1742       C  0.32159201  0.55963954  0.09676611     0.03900
N1743       N  0.31098385  0.58150347  0.11323715     0.66400
H1744       H  0.28470217  0.57109645  0.07266531     0.15300
H1745       H  0.36919750  0.99541609  0.08891677     0.15000
N1746       N  0.32527975  0.96694257  0.05268510     0.74100
O1747       O  0.31568155  0.61899000  0.10936257    -0.39300
O1748       O  0.29061934  0.56056650  0.13022322    -0.39300
O1749       O  0.36318178  0.97701585  0.04551577    -0.40000
O1750       O  0.29428241  0.92696556  0.05222719    -0.40100
C1751       C  0.17816727  0.54776328  0.07817186    -0.12300
C1752       C  0.17594020  0.52427864  0.09700932     0.04700
C1753       C  0.18566693  0.49000859  0.09584507    -0.07600
C1754       C  0.20187360  0.48307091  0.07620438    -0.08400
C1755       C  0.20951181  0.51092785  0.05810354    -0.02900
C1756       C  0.19576679  0.54237178  0.05897007     0.03900
N1757       N  0.20416635  0.57264565  0.04139418     0.66400
H1758       H  0.16916128  0.57287677  0.07872355     0.15300
H1759       H  0.21108694  0.45789184  0.07546850     0.15000
N1760       N  0.18103481  0.46345320  0.11451500     0.74100
O1761       O  0.17212700  0.56816855  0.02996188    -0.39300
O1762       O  0.24081096  0.60876330  0.04062719    -0.39300
O1763       O  0.14511082  0.42729016  0.11741309    -0.40000
O1764       O  0.21518693  0.47065325  0.12492368    -0.40100
C1765       C  0.20230468  0.69726729  0.94255744    -0.12300
C1766       C  0.15620462  0.67096786  0.94569021     0.04700
C1767       C  0.14024360  0.65256536  0.96646046    -0.07600
C1768       C  0.16837121  0.67000287  0.98454125    -0.08400
C1769       C  0.21388180  0.70192631  0.98205679    -0.02900
C1770       C  0.23155938  0.71002425  0.96055706     0.03900
N1771       N  0.27829653  0.72878062  0.95697978     0.66400
H1772       H  0.21531036  0.70764118  0.92619439     0.15300
H1773       H  0.15372205  0.65961303  0.00057449     0.15000
N1774       N  0.09583451  0.61607795  0.96935974     0.74100
O1775       O  0.30033909  0.72001870  0.97024781    -0.39300
O1776       O  0.29608224  0.74783715  0.93917287    -0.39300
O1777       O  0.08653089  0.57821051  0.96279371    -0.40000
O1778       O  0.06993680  0.61901938  0.98267233    -0.40100
C1779       C  0.98480568  0.65821834  0.94688366    -0.12300
C1780       C  0.03062343  0.67260490  0.94870387     0.04700
C1781       C  0.05078891  0.69048094  0.96923645    -0.07600
C1782       C  0.02557812  0.69036335  0.98693357    -0.08400
C1783       C  0.98277703  0.68258853  0.98405456    -0.02900
C1784       C  0.96138880  0.66459732  0.96403770     0.03900
N1785       N  0.41687495  0.65595533  0.95847810     0.66400
H1786       H  0.46830715  0.64548761  0.93002753     0.15300
H1787       H  0.04285116  0.70583035  0.00198099     0.15000
N1788       N  0.09700682  0.72011831  0.97152197     0.74100
O1789       O  0.41092837  0.68110013  0.94594499    -0.39300
O1790       O  0.38407700  0.61916873  0.96422462    -0.39300
O1791       O  0.11036061  0.75984539  0.96630881    -0.40000
O1792       O  0.11641543  0.71331256  0.98709309    -0.40100
C1793       C  0.26937524  0.83026259  0.94867078    -0.12300
C1794       C  0.31445599  0.85709199  0.94415439     0.04700
C1795       C  0.34537209  0.85717199  0.95920857    -0.07600
C1796       C  0.32995526  0.82948599  0.97776080    -0.08400
C1797       C  0.28427582  0.80346889  0.98230709    -0.02900
C1798       C  0.25462340  0.80647904  0.96811350     0.03900
N1799       N  0.20880692  0.78528680  0.97293135     0.66400
H1800       H  0.24490533  0.82920890  0.93748004     0.15300
H1801       H  0.35372738  0.82932783  0.98902599     0.15000
N1802       N  0.39200130  0.88749607  0.95707576     0.74100
O1803       O  0.18243739  0.76419391  0.95773407    -0.39300
O1804       O  0.19576877  0.79856462  0.98883773    -0.39300
O1805       O  0.40979746  0.92285141  0.96800478    -0.40000
O1806       O  0.41626365  0.87432941  0.94880811    -0.40100
C1807       C  0.32827524  0.96117173  0.96377141    -0.12300
C1808       C  0.32709488  0.98061536  0.94411033     0.04700
C1809       C  0.31195960  0.01075927  0.94366666    -0.07600
C1810       C  0.30233172  0.52085454  0.96192615    -0.08400
C1811       C  0.29282477  0.99601369  0.98219931    -0.02900
C1812       C  0.30939070  0.96664430  0.98254844     0.03900
N1813       N  0.30320583  0.93851495  0.00085862     0.66400
H1814       H  0.33968964  0.93772924  0.96402677     0.15300
H1815       H  0.29368197  0.54627710  0.96116907     0.15000
N1816       N  0.31373896  0.52799163  0.92252826     0.74100
O1817       O  0.26427751  0.91193238  0.00755398    -0.39300
O1818       O  0.33420001  0.93187434  0.00627760    -0.39300
O1819       O  0.27678443  0.51166627  0.91291828    -0.40000
O1820       O  0.34533012  0.56546988  0.91668159    -0.40100
C1821       C  0.97607114  0.82079971  0.94989387    -0.12300
C1822       C  0.00826949  0.82104754  0.93623091     0.04700
C1823       C  0.02220705  0.79063534  0.94044384    -0.07600
C1824       C  0.01185736  0.76861484  0.96047623    -0.08400
C1825       C  0.98016620  0.76831100  0.97476745    -0.02900
C1826       C  0.96064305  0.79367022  0.96846502     0.03900
N1827       N  0.42377566  0.78753266  0.97923331     0.66400
H1828       H  0.96438671  0.84344767  0.94687648     0.15300
H1829       H  0.03077792  0.75373095  0.96484811     0.15000
N1830       N  0.04608370  0.78116284  0.92443554     0.74100
O1831       O  0.42677362  0.82178101  0.98762991    -0.39300
O1832       O  0.38596110  0.75392858  0.97620198    -0.39300
O1833       O  0.08276642  0.78448224  0.92919773    -0.40000
O1834       O  0.02599191  0.76031199  0.90746850    -0.40100
C1835       C  0.16582985  0.99293870  0.94886059    -0.12300
C1836       C  0.13600865  0.94697714  0.94693768     0.04700
C1837       C  0.13775343  0.91859886  0.96298038    -0.07600
C1838       C  0.17149088  0.93546972  0.97849404    -0.08400
C1839       C  0.20016176  0.98091978  0.98067050    -0.02900
C1840       C  0.19583645  0.01019245  0.96636268     0.03900
N1841       N  0.22719842  0.56212856  0.96729750     0.66400
H1842       H  0.16973846  0.51851411  0.93590651     0.15300
H1843       H  0.17227219  0.91315307  0.99056797     0.15000
N1844       N  0.10178025  0.87447684  0.96640753     0.74100
O1845       O  0.25175085  0.58611246  0.95188674    -0.39300
O1846       O  0.21636482  0.57968818  0.98215647    -0.39300
O1847       O  0.11001873  0.84347677  0.96813677    -0.40000
O1848       O  0.06644391  0.86940370  0.97471580    -0.40100
C1849       C  0.55488604  0.42438738  0.89950938     0.86400
C1850       C  0.52021106  0.38242038  0.91161533    -0.53800
C1851       C  0.53803280  0.35997068  0.92180988     0.09300
C1852       C  0.58914297  0.38266902  0.91914931     0.20300
C1853       C  0.58959740  0.45221675  0.91693787    -0.54500
C1854       C  0.60722166  0.43015719  0.92758861     0.09500
C1855       C  0.57711219  0.40687899  0.88450443    -0.54100
C1856       C  0.59694293  0.38696867  0.89456727     0.10000
H1857       H  0.48508840  0.37162218  0.91206394     0.14500
H1858       H  0.60489302  0.36575335  0.92696761     0.00300
H1859       H  0.59823801  0.48587388  0.92081201     0.14800
H1860       H  0.56655051  0.39924252  0.86791366     0.14600
C1861       C  0.87553544  0.44209884  0.89902864     0.86400
C1862       C  0.87283486  0.47546635  0.91420604    -0.53800
C1863       C  0.83325742  0.45730898  0.92512791     0.09300
C1864       C  0.80076938  0.40807424  0.92009480     0.20300
C1865       C  0.86684807  0.40306393  0.91386476    -0.54500
C1866       C  0.82822543  0.38594228  0.92548747     0.09500
C1867       C  0.83467649  0.42548550  0.88458411    -0.54100
C1868       C  0.79526050  0.40560486  0.89529910     0.10000
H1869       H  0.90032894  0.50876539  0.91726053     0.14500
H1870       H  0.76882657  0.39476353  0.92902935     0.00300
H1871       H  0.88990785  0.39115861  0.91534899     0.14800
H1872       H  0.83714038  0.43421317  0.86765669     0.14600
C1873       C  0.56713773  0.12106906  0.90121935     0.86400
C1874       C  0.60433748  0.12445910  0.91593928    -0.53800
C1875       C  0.62520542  0.16250803  0.92797432     0.09300
C1876       C  0.60631784  0.19393887  0.92409026     0.20300
C1877       C  0.53570833  0.12646209  0.91699436    -0.54500
C1878       C  0.55586898  0.16416113  0.92964773     0.09500
C1879       C  0.58995306  0.16347864  0.88775450    -0.54100
C1880       C  0.60918209  0.20195195  0.89898847     0.10000
H1881       H  0.61238730  0.09844136  0.91739369     0.14500
H1882       H  0.62308297  0.22533878  0.93298112     0.00300
H1883       H  0.50094316  0.10104683  0.91879974     0.14800
H1884       H  0.59443921  0.16308284  0.87050126     0.14600
O1885       O  0.60508930  0.26606022  0.82956996    -0.81900
C1886       C  0.75318195  0.38033780  0.88310519     0.97500
O1887       O  0.74573801  0.34531151  0.87347605    -0.71000
O1888       O  0.66959155  0.27018967  0.88403346    -0.74600
Al1889     Al  0.69708578  0.30041938  0.85670902     1.49000
C1890       C  0.62801750  0.24449487  0.88616851     0.92700
O1891       O  0.60388748  0.32701212  0.88114364    -0.80800
O1892       O  0.66794293  0.38740661  0.82686713    -0.74400
Al1893     Al  0.60771120  0.29806347  0.85548872     1.90100
O1894       O  0.65285958  0.39457813  0.87034659    -0.73400
O1895       O  0.74496204  0.39441472  0.83635788    -0.73300
O1896       O  0.72808615  0.39600764  0.88016144    -0.78900
O1897       O  0.72778904  0.32613326  0.82972699    -0.77100
O1898       O  0.66694998  0.32882124  0.85544056    -1.13300
O1899       O  0.65542878  0.24994682  0.83973757    -0.72500
C1900       C  0.62326551  0.24291613  0.82753606     0.98300
C1901       C  0.61964908  0.36841343  0.88193125     0.94700
Al1902     Al  0.69587390  0.38793490  0.85362838     1.55600
O1903       O  0.60169556  0.25032284  0.87425328    -0.77100
C1904       C  0.75161053  0.36726269  0.82591864     0.98800
C1905       C  0.62660777  0.37161511  0.82518058     0.93700
O1906       O  0.60001409  0.33887872  0.83694825    -0.82400
C1907       C  0.73199584  0.50324996  0.99926238     0.02200
C1908       C  0.77408866  0.50707402  0.00060176     0.02200
C1909       C  0.79549787  0.01772792  0.02051550    -0.18300
C1910       C  0.77458596  0.01695533  0.04016761     0.02200
C1911       C  0.73084795  0.01019404  0.03911847     0.02200
C1912       C  0.70996076  0.00430728  0.01890198    -0.18300
H1913       H  0.67610713  0.99775391  0.01829585     0.04200
H1914       H  0.82916509  0.02394443  0.02062471     0.04200
C1915       C  0.62796875  0.05766864  0.14479776     0.86400
C1916       C  0.64038186  0.09950987  0.13101088    -0.53800
C1917       C  0.68042765  0.11667321  0.12038793     0.09300
C1918       C  0.70442504  0.09094289  0.12509715     0.20300
C1919       C  0.62986400  0.02536171  0.12878368    -0.54500
C1920       C  0.66997245  0.04262730  0.11850111     0.09500
C1921       C  0.66761197  0.07079073  0.15986128    -0.54100
C1922       C  0.70795781  0.09032541  0.15000084     0.10000
H1923       H  0.61845613  0.11268909  0.12885938     0.14500
H1924       H  0.73658793  0.10413635  0.11650648     0.00300
H1925       H  0.60117122  0.99350373  0.12457643     0.14800
H1926       H  0.66358634  0.06172130  0.17673672     0.14600
C1927       C  0.93299499  0.37629588  0.14357861     0.86400
C1928       C  0.95839652  0.36980347  0.12461469    -0.53800
C1929       C  0.93301648  0.33050603  0.11339936     0.09300
C1930       C  0.88484430  0.30224197  0.12256082     0.20300
C1931       C  0.89134238  0.37215852  0.13266944    -0.54500
C1932       C  0.86659152  0.33406413  0.12124052     0.09500
C1933       C  0.91721345  0.33469443  0.15729886    -0.54100
C1934       C  0.89048248  0.29574912  0.14709571     0.10000
H1935       H  0.99200569  0.39466243  0.12000301     0.14500
H1936       H  0.86421431  0.27081444  0.11377053     0.00300
H1937       H  0.88522851  0.39957661  0.13179078     0.14800
H1938       H  0.93079077  0.33591124  0.17320376     0.14600
C1939       C  0.93801464  0.06657936  0.14380175     0.86400
C1940       C  0.90063782  0.03857454  0.12766718    -0.53800
C1941       C  0.88244028  0.06144600  0.11832324     0.09300
C1942       C  0.90437871  0.11012861  0.12600294     0.20300
C1943       C  0.97207603  0.10776229  0.13055256    -0.54500
C1944       C  0.95418897  0.13044427  0.12093891     0.09500
C1945       C  0.91606332  0.08310174  0.15973853    -0.54100
C1946       C  0.90093054  0.10837237  0.15074235     0.10000
H1947       H  0.88986220  0.00427632  0.12400780     0.14500
H1948       H  0.88917534  0.12781573  0.11864420     0.00300
H1949       H  0.00669178  0.11725119  0.12884257     0.14800
H1950       H  0.90815828  0.07060940  0.17617046     0.14600
O1951       O  0.76026943  0.10387007  0.21112962    -0.81900
C1952       C  0.87242829  0.25372326  0.15995082     0.97500
O1953       O  0.83113910  0.22835085  0.16273114    -0.71000
O1954       O  0.75636120  0.15159280  0.17190733    -0.74600
Al1955     Al  0.80319630  0.19667096  0.18950986     1.49000
C1956       C  0.74894342  0.11574409  0.16320288     0.92700
O1957       O  0.84917085  0.10363129  0.17644236    -0.80800
O1958       O  0.90509853  0.16508213  0.20866671    -0.74400
Al1959     Al  0.80791847  0.11061087  0.19356342     1.90100
O1960       O  0.89727879  0.17055878  0.16453404    -0.73400
O1961       O  0.89866362  0.23662760  0.21541786    -0.73300
O1962       O  0.89930099  0.24773724  0.17100233    -0.78900
O1963       O  0.84292070  0.24622622  0.20723862    -0.77100
O1964       O  0.83513104  0.16980785  0.19100524    -1.13300
O1965       O  0.77030121  0.17011580  0.21594723    -0.72500
C1966       C  0.74950236  0.12921067  0.22024647     0.98300
C1967       C  0.88089538  0.12881140  0.16407165     0.94700
Al1968     Al  0.89463435  0.20208584  0.18995364     1.55600
O1969       O  0.77306628  0.09957243  0.16764523    -0.77100
C1970       C  0.87751293  0.25677111  0.21829794     0.98800
C1971       C  0.88119068  0.13187919  0.22053613     0.93700
O1972       O  0.83924914  0.11315870  0.21971704    -0.82400
C1973       C  0.46801808  0.20218170  0.99989932     0.02200
C1974       C  0.47374858  0.24527377  0.99675742     0.02200
C1975       C  0.47360575  0.26908411  0.01529311    -0.18300
C1976       C  0.96981547  0.25600608  0.03706283     0.02200
C1977       C  0.96879945  0.21554064  0.04083327     0.02200
C1978       C  0.96810864  0.19039273  0.02281156    -0.18300
H1979       H  0.96760531  0.15958423  0.02568031     0.04200
H1980       H  0.47949852  0.30236839  0.01341209     0.04200
C1981       C  0.76794485  0.27408617  0.00253555     0.02200
C1982       C  0.73892602  0.22694742  0.00243622     0.02200
C1983       C  0.72873354  0.20479564  0.02271762    -0.18300
C1984       C  0.74226399  0.22731755  0.04275980     0.02200
C1985       C  0.77007571  0.27452455  0.04285171     0.02200
C1986       C  0.78229158  0.29657887  0.02255278    -0.18300
H1987       H  0.80272399  0.33241466  0.02216734     0.04200
H1988       H  0.70906174  0.16891466  0.02305074     0.04200
C1989       C  0.96359881  0.22942888  0.47863759     0.86400
C1990       C  0.97436688  0.27081536  0.46510467    -0.53800
C1991       C  0.51151100  0.28759847  0.45399540     0.09300
C1992       C  0.53626728  0.26195239  0.45718197     0.20300
C1993       C  0.96429435  0.19675852  0.46214537    -0.54500
C1994       C  0.50165937  0.21363587  0.45132117     0.09500
C1995       C  0.50444007  0.24263496  0.49321172    -0.54100
C1996       C  0.54316346  0.26156812  0.48188466     0.10000
H1997       H  0.95230509  0.28409344  0.46436014     0.14500
H1998       H  0.56665980  0.27380719  0.44751680     0.00300
H1999       H  0.93644042  0.16359478  0.45923688     0.14800
H2000       H  0.50326149  0.23577142  0.51035473     0.14600
C2001       C  0.78052024  0.24211168  0.47738028     0.86400
C2002       C  0.74159224  0.20967677  0.46296674    -0.53800
C2003       C  0.71976331  0.22776477  0.45287914     0.09300
C2004       C  0.73882094  0.27704794  0.45885466     0.20300
C2005       C  0.81071201  0.28164095  0.46222162    -0.54500
C2006       C  0.78872410  0.30092477  0.45266887     0.09500
C2007       C  0.76182221  0.26215350  0.49313358    -0.54100
C2008       C  0.73896558  0.27953679  0.48379052     0.10000
H2009       H  0.73278160  0.17542261  0.46076904     0.14500
H2010       H  0.72039071  0.29071350  0.45103645     0.00300
H2011       H  0.84576149  0.29348394  0.45989934     0.14800
H2012       H  0.77172680  0.26769764  0.50994616     0.14600
C2013       C  0.76980501  0.04583578  0.47786510     0.86400
C2014       C  0.79347187  0.04146530  0.45771340    -0.53800
C2015       C  0.76677379  0.50024023  0.44640311     0.09300
C2016       C  0.72064358  0.46945615  0.45752847     0.20300
C2017       C  0.72492985  0.03763876  0.46908466    -0.54500
C2018       C  0.69850467  0.49789820  0.45822429     0.09500
C2019       C  0.75833671  0.50421114  0.49100399    -0.54100
C2020       C  0.73142060  0.46451122  0.48139916     0.10000
H2021       H  0.82613197  0.06781886  0.45259638     0.14500
H2022       H  0.69910083  0.43686895  0.45016648     0.00300
H2023       H  0.71631159  0.06335556  0.46850243     0.14800
H2024       H  0.77513484  0.50684418  0.50611883     0.14600
O2025       O  0.59112447  0.27132305  0.54124010    -0.81900
C2026       C  0.71218875  0.42270347  0.49450809     0.97500
O2027       O  0.67061028  0.39644386  0.49518481    -0.71000
O2028       O  0.59275974  0.32219482  0.50333240    -0.74600
Al2029     Al  0.63927221  0.36548412  0.52137549     1.49000
C2030       C  0.58532611  0.28706331  0.49395116     0.92700
O2031       O  0.68337816  0.27166552  0.50810434    -0.80800
O2032       O  0.73420868  0.32615781  0.54376269    -0.74400
Al2033     Al  0.64008213  0.27743768  0.52464754     1.90100
O2034       O  0.73520659  0.33993630  0.49970730    -0.73400
O2035       O  0.72701581  0.39770500  0.55141408    -0.73300
O2036       O  0.73712035  0.41672653  0.50726217    -0.78900
O2037       O  0.67827875  0.41460562  0.53945511    -0.77100
O2038       O  0.66909899  0.33667439  0.52375171    -1.13300
O2039       O  0.60487520  0.33890164  0.54717326    -0.72500
C2040       C  0.58272945  0.29783236  0.55113037     0.98300
C2041       C  0.71755269  0.29839013  0.49731220     0.94700
Al2042     Al  0.72822913  0.36748944  0.52541733     1.55600
O2043       O  0.60941323  0.27065915  0.49774595    -0.77100
C2044       C  0.70925373  0.42148255  0.55241047     0.98800
C2045       C  0.70753753  0.29212287  0.55463221     0.93700
O2046       O  0.66620218  0.27486044  0.55185203    -0.82400
C2047       C  0.70714002  0.10744323  0.23353384     0.86400
C2048       C  0.69528089  0.13511842  0.24846010    -0.53800
C2049       C  0.65422272  0.11021572  0.25840367     0.09300
C2050       C  0.63009665  0.06010635  0.25229970     0.20300
C2051       C  0.70361069  0.07019745  0.24840928    -0.54500
C2052       C  0.66343112  0.04590918  0.25839737     0.09500
C2053       C  0.66771979  0.08607727  0.21801925    -0.54100
C2054       C  0.62754472  0.05922373  0.22747859     0.10000
H2055       H  0.71737355  0.17033360  0.25111552     0.14500
H2056       H  0.59746311  0.03845921  0.26020850     0.00300
H2057       H  0.73222699  0.06754803  0.25293346     0.14800
H2058       H  0.67013639  0.10070968  0.20223143     0.14600
C2059       C  0.89502881  0.29728792  0.23301975     0.86400
C2060       C  0.93798338  0.31136206  0.24649440    -0.53800
C2061       C  0.95254495  0.34977573  0.25849175     0.09300
C2062       C  0.92374038  0.37107486  0.25427823     0.20300
C2063       C  0.86153842  0.29531047  0.24996548    -0.54500
C2064       C  0.87671957  0.33410105  0.26114017     0.09500
C2065       C  0.90598422  0.33752302  0.21891583    -0.54100
C2066       C  0.92282259  0.37653279  0.22945564     0.10000
H2067       H  0.95360027  0.29149958  0.24695226     0.14500
H2068       H  0.93340076  0.40233228  0.26264466     0.00300
H2069       H  0.83026218  0.26536252  0.25374881     0.14800
H2070       H  0.90046814  0.33539061  0.20167783     0.14600
C2071       C  0.90397987  0.11194603  0.23314899     0.86400
C2072       C  0.87248488  0.06739866  0.24466094    -0.53800
C2073       C  0.89393630  0.04919515  0.25536310     0.09300
C2074       C  0.94487151  0.07639452  0.25203268     0.20300
C2075       C  0.93634311  0.14145316  0.25088968    -0.54500
C2076       C  0.95803489  0.12279754  0.26067720     0.09500
C2077       C  0.93269266  0.10215294  0.21789729    -0.54100
C2078       C  0.95235692  0.08136258  0.22729661     0.10000
H2079       H  0.83674923  0.05275807  0.24465920     0.14500
H2080       H  0.96410703  0.06343624  0.26010430     0.00300
H2081       H  0.93934911  0.17235913  0.25627215     0.14800
H2082       H  0.93879133  0.11314052  0.20122491     0.14600
O2083       O  0.93133296  0.42666820  0.16927984    -0.81900
C2084       C  0.58612688  0.03988269  0.21457456     0.97500
O2085       O  0.55900893  0.99837624  0.21420889    -0.71000
O2086       O  0.48160437  0.42165402  0.20622481    -0.74600
Al2087     Al  0.52599501  0.46767966  0.18804469     1.49000
C2088       C  0.94850341  0.41819546  0.21654670     0.92700
O2089       O  0.93870410  0.02106720  0.20450200    -0.80800
O2090       O  0.99443891  0.06953921  0.16628395    -0.74400
Al2091     Al  0.94134695  0.47647919  0.18676528     1.90100
O2092       O  0.00858559  0.07214976  0.20989462    -0.73400
O2093       O  0.56278449  0.05751109  0.15857365    -0.73300
O2094       O  0.58080609  0.06562701  0.20219310    -0.78900
O2095       O  0.57611573  0.00628058  0.17031116    -0.77100
O2096       O  0.50001845  0.00058396  0.18671696    -1.13300
O2097       O  0.99720802  0.43654492  0.16173004    -0.72500
C2098       C  0.95582301  0.41670463  0.15830474     0.98300
C2099       C  0.96767884  0.05647648  0.21368542     0.94700
Al2100     Al  0.53320811  0.05968768  0.18454218     1.55600
O2101       O  0.93429794  0.44449060  0.21366347    -0.77100
C2102       C  0.58562527  0.03881313  0.15797047     0.98800
C2103       C  0.95847877  0.04462715  0.15657097     0.93700
O2104       O  0.93723156  0.00352294  0.16041784    -0.82400
C2105       C  0.55429324  0.14627589  0.37976529     0.02200
C2106       C  0.59858232  0.15508073  0.37868661     0.02200
C2107       C  0.61492531  0.15165806  0.35811501    -0.18300
C2108       C  0.58983685  0.14387056  0.33875847     0.02200
C2109       C  0.54682887  0.13891664  0.34031986     0.02200
C2110       C  0.52950203  0.13787314  0.36079807    -0.18300
H2111       H  0.49789894  0.13635132  0.36207054     0.04200
H2112       H  0.64793652  0.15654062  0.35709273     0.04200
C2113       C  0.83575016  0.41202115  0.37711362     0.02200
C2114       C  0.83910965  0.45339747  0.37303241     0.02200
C2115       C  0.84603119  0.46973201  0.35161699    -0.18300
C2116       C  0.84863872  0.44547282  0.33399817     0.02200
C2117       C  0.84243458  0.40264903  0.33788968     0.02200
C2118       C  0.83637553  0.38685708  0.35947691    -0.18300
H2119       H  0.83130540  0.35414779  0.36265489     0.04200
H2120       H  0.84824397  0.50130051  0.34857724     0.04200
C2121       C  0.56146092  0.40694231  0.37889286     0.02200
C2122       C  0.59741476  0.45241129  0.37972740     0.02200
C2123       C  0.61157966  0.47584748  0.36006460    -0.18300
C2124       C  0.59455337  0.45694176  0.33976265     0.02200
C2125       C  0.55624216  0.41393932  0.33890899     0.02200
C2126       C  0.54157197  0.38913729  0.35838583    -0.18300
H2127       H  0.51539196  0.35507907  0.35718280     0.04200
H2128       H  0.63711704  0.50977803  0.36043296     0.04200
C2129       C  0.79296579  0.38497711  0.81178886     0.86400
C2130       C  0.80378636  0.42510328  0.79661083    -0.53800
C2131       C  0.84336400  0.44173082  0.78522177     0.09300
C2132       C  0.86835442  0.41739134  0.79121639     0.20300
C2133       C  0.79497136  0.35137369  0.79665380    -0.54500
C2134       C  0.83442421  0.36841540  0.78578964     0.09500
C2135       C  0.83349601  0.40094787  0.82643401    -0.54100
C2136       C  0.87325013  0.42052654  0.81609294     0.10000
H2137       H  0.78149278  0.43786845  0.79486789     0.14500
H2138       H  0.90048940  0.42895288  0.78305047     0.00300
H2139       H  0.76649916  0.31890371  0.79313148     0.14800
H2140       H  0.83051707  0.39290111  0.84345384     0.14600
C2141       C  0.60281108  0.20234119  0.81297794     0.86400
C2142       C  0.63643211  0.19178156  0.80180172    -0.53800
C2143       C  0.61665202  0.15270257  0.79016242     0.09300
C2144       C  0.56571312  0.12826213  0.79128709     0.20300
C2145       C  0.57328184  0.20157199  0.79429584    -0.54500
C2146       C  0.55418466  0.16278484  0.78288157     0.09500
C2147       C  0.57207796  0.16121674  0.82643462    -0.54100
C2148       C  0.55475628  0.12227448  0.81566604     0.10000
H2149       H  0.67215662  0.21417035  0.80230218     0.14500
H2150       H  0.54804453  0.09700077  0.78198667     0.00300
H2151       H  0.56965653  0.22956016  0.78978303     0.14800
H2152       H  0.56282994  0.16277331  0.84296705     0.14600
C2153       C  0.60937090  0.39619298  0.81179351     0.86400
C2154       C  0.56791682  0.36702509  0.79754157    -0.53800
C2155       C  0.55203029  0.39043380  0.78642937     0.09300
C2156       C  0.57860714  0.44045693  0.79167611     0.20300
C2157       C  0.64315278  0.43144164  0.79618589    -0.54500
C2158       C  0.62722836  0.45479639  0.78574441     0.09500
C2159       C  0.59601914  0.42236647  0.82666568    -0.54100
C2160       C  0.57700081  0.44312237  0.81659696     0.10000
H2161       H  0.55327150  0.33143843  0.79652445     0.14500
H2162       H  0.56778247  0.46117344  0.78320006     0.00300
H2163       H  0.67540939  0.43544916  0.79250250     0.14800
H2164       H  0.60770566  0.43002389  0.84309947     0.14600
O2165       O  0.92217382  0.43141529  0.87432160    -0.81900
C2166       C  0.53804485  0.08069212  0.82820610     0.97500
O2167       O  0.49680088  0.05424399  0.82966839    -0.71000
O2168       O  0.91963792  0.98135022  0.83955337    -0.74600
Al2169     Al  0.96935623  0.02612091  0.85669197     1.49000
C2170       C  0.91527926  0.44667147  0.82861219     0.92700
O2171       O  0.51692095  0.43193954  0.83951579    -0.80800
O2172       O  0.56599719  0.48397099  0.87564921    -0.74400
Al2173     Al  0.97214481  0.43795764  0.85747376     1.90100
O2174       O  0.56752998  0.50066612  0.83164842    -0.73400
O2175       O  0.56037620  0.05566638  0.88424798    -0.73300
O2176       O  0.56505403  0.07507774  0.83978590    -0.78900
O2177       O  0.51342984  0.07582996  0.87369322    -0.77100
O2178       O  0.49973844  0.99600006  0.85696043    -1.13300
O2179       O  0.94209936  0.49980045  0.88311055    -0.72500
C2180       C  0.91646974  0.45875819  0.88536477     0.98300
C2181       C  0.55198295  0.45960842  0.82933626     0.94700
Al2182     Al  0.55865739  0.02596140  0.85778833     1.55600
O2183       O  0.94229491  0.43305656  0.83046119    -0.77100
C2184       C  0.54485369  0.08105803  0.88610484     0.98800
C2185       C  0.53822783  0.44943325  0.88608375     0.93700
O2186       O  0.49714268  0.43323087  0.88318714    -0.82400
C2187       C  0.73001196  0.46336642  0.56603330     0.86400
C2188       C  0.76791589  0.46942594  0.58112216    -0.53800
C2189       C  0.80281223  0.00999652  0.58793882     0.09300
C2190       C  0.78393556  0.04076511  0.58488602     0.20300
C2191       C  0.69980619  0.47229148  0.58099029    -0.54500
C2192       C  0.73517696  0.01301478  0.59289348     0.09500
C2193       C  0.75444487  0.00552231  0.55035345    -0.54100
C2194       C  0.77966661  0.04513022  0.56034514     0.10000
H2195       H  0.77407394  0.44276681  0.58499391     0.14500
H2196       H  0.80445378  0.07305706  0.59311036     0.00300
H2197       H  0.66480504  0.44847949  0.58363083     0.14800
H2198       H  0.74088297  0.00322461  0.53437329     0.14600
C2199       C  0.54250668  0.27820185  0.56581026     0.86400
C2200       C  0.53937016  0.30771287  0.58329418    -0.53800
C2201       C  0.00304943  0.29974753  0.59228866     0.09300
C2202       C  0.96752080  0.25127062  0.58687557     0.20300
C2203       C  0.53638855  0.23730010  0.57841929    -0.54500
C2204       C  0.99071904  0.22496404  0.59229966     0.09500
C2205       C  0.00163075  0.26725595  0.55136760    -0.54100
C2206       C  0.96234880  0.24904826  0.56203126     0.10000
H2207       H  0.56580790  0.34139538  0.58654306     0.14500
H2208       H  0.93571711  0.24051482  0.59519173     0.00300
H2209       H  0.56173748  0.22812484  0.57918741     0.14800
H2210       H  0.00402211  0.27372997  0.53416672     0.14600
C2211       C  0.72630520  0.26845626  0.56774338     0.86400
C2212       C  0.69580125  0.23369684  0.58469197    -0.53800
C2213       C  0.71522069  0.21283898  0.59476013     0.09300
C2214       C  0.76294236  0.22833332  0.58662461     0.20300
C2215       C  0.76933236  0.29983455  0.58048817    -0.54500
C2216       C  0.78814061  0.27865747  0.59104998     0.09500
C2217       C  0.73927083  0.24277692  0.55229962    -0.54100
C2218       C  0.76074284  0.22377646  0.56161923     0.10000
H2219       H  0.66386617  0.22903905  0.58964474     0.14500
H2220       H  0.77659672  0.20941395  0.59451698     0.00300
H2221       H  0.78253582  0.33526720  0.58136813     0.14800
H2222       H  0.72966372  0.23806208  0.53545695     0.14600
O2223       O  0.77860023  0.11373590  0.49262028    -0.81900
C2224       C  0.92061844  0.22281025  0.54970900     0.97500
O2225       O  0.91507343  0.18944009  0.53901262    -0.71000
O2226       O  0.83837972  0.11455288  0.54777675    -0.74600
Al2227     Al  0.86695215  0.14499557  0.52142656     1.49000
C2228       C  0.79709731  0.08713573  0.54818588     0.92700
O2229       O  0.77025867  0.16716716  0.54530730    -0.80800
O2230       O  0.84056452  0.23608282  0.49320869    -0.74400
Al2231     Al  0.77785549  0.14217242  0.51896409     1.90100
O2232       O  0.81966796  0.23637042  0.53724223    -0.73400
O2233       O  0.91615029  0.23960010  0.50360875    -0.73300
O2234       O  0.89407070  0.23679239  0.54748120    -0.78900
O2235       O  0.89774325  0.17140597  0.49527621    -0.77100
O2236       O  0.83666337  0.17322525  0.52034894    -1.13300
O2237       O  0.82619891  0.09468126  0.50356481    -0.72500
C2238       C  0.79410972  0.08810872  0.49137344     0.98300
C2239       C  0.78545726  0.20816739  0.54789874     0.94700
Al2240     Al  0.86526036  0.23230376  0.52039617     1.55600
O2241       O  0.77087750  0.09272528  0.53615800    -0.77100
C2242       C  0.92261717  0.21253908  0.49267301     0.98800
C2243       C  0.79933477  0.21902601  0.49058975     0.93700
O2244       O  0.77230273  0.18475209  0.50137400    -0.82400
C2245       C  0.89667880  0.33354271  0.70772767     0.02200
C2246       C  0.94213888  0.34652963  0.70945554     0.02200
C2247       C  0.96574393  0.35044716  0.69036467    -0.18300
C2248       C  0.94493198  0.34016181  0.66989720     0.02200
C2249       C  0.89943820  0.32708527  0.66817263     0.02200
C2250       C  0.87597128  0.32365717  0.68724110    -0.18300
H2251       H  0.84114868  0.31367829  0.68612862     0.04200
H2252       H  0.00065505  0.36069923  0.69147779     0.04200
C2253       C  0.67246816  0.09998211  0.71273713     0.02200
C2254       C  0.67793468  0.06276898  0.71047635     0.02200
C2255       C  0.68657902  0.05125813  0.68997074    -0.18300
C2256       C  0.68609294  0.07300297  0.67081830     0.02200
C2257       C  0.67922347  0.10956317  0.67290427     0.02200
C2258       C  0.67292876  0.12261804  0.69372460    -0.18300
H2259       H  0.66794488  0.15062710  0.69503292     0.04200
H2260       H  0.69318909  0.02428651  0.68907881     0.04200
C2261       C  0.93187897  0.10639174  0.70926861     0.02200
C2262       C  0.89978484  0.06037916  0.70919237     0.02200
C2263       C  0.88087488  0.03983453  0.68922958    -0.18300
C2264       C  0.89229774  0.06363702  0.66938726     0.02200
C2265       C  0.92457937  0.10977545  0.66955646     0.02200
C2266       C  0.94332253  0.13024369  0.68948886    -0.18300
H2267       H  0.96855963  0.16518969  0.68952669     0.04200
H2268       H  0.85792714  0.00436584  0.68913755     0.04200
C2269       C  0.85582672  0.34298771  0.64115352    -0.12300
C2270       C  0.87548834  0.31808876  0.64690256     0.04700
C2271       C  0.86957603  0.28362648  0.63301226    -0.07600
C2272       C  0.84777429  0.27728326  0.61300869    -0.08400
C2273       C  0.82386396  0.29872383  0.60821073    -0.02900
C2274       C  0.82831778  0.33220842  0.62275843     0.03900
N2275       N  0.80097803  0.35148188  0.62098830     0.66400
H2276       H  0.85886094  0.36868476  0.65204961     0.15300
H2277       H  0.84580163  0.25184972  0.60233213     0.15000
N2278       N  0.87844951  0.25029997  0.64056914     0.74100
O2279       O  0.76231738  0.33118119  0.62903178    -0.39300
O2280       O  0.81857326  0.39211902  0.61642084    -0.39300
O2281       O  0.85371840  0.22364972  0.65516263    -0.40000
O2282       O  0.90162438  0.23996060  0.62909046    -0.40100
C2283       C  0.72729884  0.20662042  0.63399596    -0.12300
C2284       C  0.69932678  0.18876573  0.61584804     0.04700
C2285       C  0.66039529  0.14683074  0.61777218    -0.07600
C2286       C  0.65306039  0.12143075  0.63680139    -0.08400
C2287       C  0.68351581  0.13811169  0.65413153    -0.02900
C2288       C  0.71989693  0.18188527  0.65303615     0.03900
N2289       N  0.75137123  0.20053443  0.67050935     0.66400
H2290       H  0.75644887  0.23933164  0.63309521     0.15300
H2291       H  0.62425021  0.08830565  0.63786601     0.15000
N2292       N  0.62866650  0.12935011  0.60050588     0.74100
O2293       O  0.77021281  0.18054920  0.67783839    -0.39300
O2294       O  0.76133327  0.23777771  0.67825223    -0.39300
O2295       O  0.62496050  0.09750596  0.58931039    -0.40000
O2296       O  0.59827217  0.13870700  0.59977813    -0.40100
C2297       C  0.00234342  0.30099821  0.63220666    -0.12300
C2298       C  0.00038097  0.32036518  0.61255537     0.04700
C2299       C  0.98892513  0.35340611  0.61263699    -0.07600
C2300       C  0.97391821  0.36241697  0.63200598    -0.08400
C2301       C  0.97009913  0.33842399  0.65107212    -0.02900
C2302       C  0.98694712  0.30942120  0.65146877     0.03900
N2303       N  0.98360639  0.28428082  0.67059707     0.66400
H2304       H  0.01206144  0.27619087  0.63226411     0.15300
H2305       H  0.96271111  0.38611191  0.63187800     0.15000
N2306       N  0.50726071  0.37438765  0.59512614     0.74100
O2307       O  0.94606038  0.25425662  0.67741654    -0.39300
O2308       O  0.01826569  0.29222245  0.68076471    -0.39300
O2309       O  0.47793784  0.37379550  0.58290206    -0.40000
O2310       O  0.54689641  0.40604308  0.59350521    -0.40100
C2311       C  0.98536463  0.15644999  0.64294822    -0.12300
C2312       C  0.94075863  0.13771413  0.64930986     0.04700
C2313       C  0.91234609  0.14555468  0.63629978    -0.07600
C2314       C  0.92819325  0.16946402  0.61660809    -0.08400
C2315       C  0.97375134  0.19095050  0.61067826    -0.02900
C2316       C  0.00231792  0.18374792  0.62433860     0.03900
N2317       N  0.04919369  0.20629908  0.62072763     0.66400
H2318       H  0.00771518  0.15111158  0.65301850     0.15300
H2319       H  0.90468667  0.17278766  0.60653503     0.15000
N2320       N  0.86836102  0.13210949  0.64375454     0.74100
O2321       O  0.47392846  0.10215005  0.57474775    -0.39300
O2322       O  0.06715303  0.18447819  0.61502812    -0.39300
O2323       O  0.86270440  0.14412722  0.66228688    -0.40000
O2324       O  0.83522675  0.10939312  0.63167331    -0.40100
C2325       C  0.80183571  0.99945843  0.62758270    -0.12300
C2326       C  0.82665490  0.01283631  0.60825191     0.04700
C2327       C  0.87321005  0.03494216  0.60927385    -0.07600
C2328       C  0.89425336  0.04692684  0.62963351    -0.08400
C2329       C  0.86945434  0.03999400  0.64890078    -0.02900
C2330       C  0.82253126  0.01331313  0.64781429     0.03900
N2331       N  0.79497740  0.00339043  0.66670571     0.66400
H2332       H  0.76584596  0.98130719  0.62692160     0.15300
H2333       H  0.93021335  0.06453544  0.63019636     0.15000
N2334       N  0.89947431  0.04799329  0.58983335     0.74100
O2335       O  0.78223359  0.02975871  0.67230665    -0.39300
O2336       O  0.77506511  0.96437422  0.67425834    -0.39300
O2337       O  0.91564390  0.08704219  0.58267001    -0.40000
O2338       O  0.91341554  0.02373703  0.58240821    -0.40100
C2339       C  0.68802815  0.99768137  0.62609138    -0.12300
C2340       C  0.71756301  0.02837544  0.61087899     0.04700
C2341       C  0.73333394  0.07385881  0.61429210    -0.07600
C2342       C  0.72458688  0.08788995  0.63409362    -0.08400
C2343       C  0.69449749  0.05728651  0.64942556    -0.02900
C2344       C  0.67498842  0.01140714  0.64464847     0.03900
N2345       N  0.63640542  0.48158838  0.65847706     0.66400
H2346       H  0.66098649  0.46400569  0.62158722     0.15300
H2347       H  0.74125617  0.12303988  0.63716278     0.15000
N2348       N  0.75490725  0.10564761  0.59713085     0.74100
O2349       O  0.59777498  0.47579975  0.65969851    -0.39300
O2350       O  0.64299325  0.45114980  0.66492807    -0.39300
O2351       O  0.73513412  0.10002487  0.57916884    -0.40000
O2352       O  0.78982150  0.14220407  0.60088767    -0.40100
C2353       C  0.48206159  0.32905446  0.73617726    -0.12300
C2354       C  0.96583253  0.35458260  0.73074540     0.04700
C2355       C  0.97165114  0.38845443  0.74502635    -0.07600
C2356       C  0.99341138  0.39406990  0.76497268    -0.08400
C2357       C  0.51647023  0.37262628  0.76906393    -0.02900
C2358       C  0.50853322  0.33746829  0.75483164     0.03900
N2359       N  0.52968381  0.31213396  0.75782537     0.66400
H2360       H  0.47655411  0.30220346  0.72546646     0.15300
H2361       H  0.99549170  0.41919798  0.77591479     0.15000
N2362       N  0.96247780  0.42186747  0.73801132     0.74100
O2363       O  0.50741490  0.27319590  0.76533958    -0.39300
O2364       O  0.56601332  0.32407923  0.74818855    -0.39300
O2365       O  0.93996571  0.43213960  0.75006835    -0.40000
O2366       O  0.98653195  0.44861658  0.72327226    -0.40100
C2367       C  0.62538377  0.46505631  0.74655520    -0.12300
C2368       C  0.64862156  0.48096331  0.76600890     0.04700
C2369       C  0.68269311  0.02066057  0.76653197    -0.07600
C2370       C  0.69573701  0.04696702  0.74763332    -0.08400
C2371       C  0.66953983  0.03196443  0.72872313    -0.02900
C2372       C  0.63839848  0.49110345  0.72783370     0.03900
N2373       N  0.60923866  0.47509620  0.70944114     0.66400
H2374       H  0.59490765  0.43313643  0.74623584     0.15300
H2375       H  0.72478381  0.08000649  0.74804659     0.15000
N2376       N  0.70824150  0.03749094  0.78600606     0.74100
O2377       O  0.59416477  0.43562380  0.70328287    -0.39300
O2378       O  0.58956437  0.49520660  0.70354777    -0.39300
O2379       O  0.74190686  0.03368780  0.78880085    -0.40000
O2380       O  0.70297501  0.06383095  0.79785590    -0.40100
C2381       C  0.97503575  0.14526436  0.76700795    -0.12300
C2382       C  0.53085829  0.15618140  0.76201322     0.04700
C2383       C  0.55204133  0.15682184  0.74232263    -0.07600
C2384       C  0.00623107  0.14213774  0.72554959    -0.08400
C2385       C  0.96124958  0.12823324  0.72828684    -0.02900
C2386       C  0.94591878  0.13184778  0.74907265     0.03900
N2387       N  0.90161253  0.12312716  0.75209449     0.66400
H2388       H  0.46952111  0.14315790  0.77689909     0.15300
H2389       H  0.01861333  0.14021719  0.70960608     0.15000
N2390       N  0.59967791  0.18184061  0.74002505     0.74100
O2391       O  0.87575414  0.09287414  0.76509219    -0.39300
O2392       O  0.89227563  0.15190226  0.74606987    -0.39300
O2393       O  0.61797683  0.17503837  0.72393773    -0.40000
O2394       O  0.62220430  0.21679167  0.75096933    -0.40100
C2395       C  0.62815676  0.08235676  0.74738372    -0.12300
C2396       C  0.66316251  0.11385564  0.73436735     0.04700
C2397       C  0.68803801  0.15802201  0.74217353    -0.07600
C2398       C  0.67532704  0.17001633  0.76160666    -0.08400
C2399       C  0.63933780  0.13840259  0.77411635    -0.02900
C2400       C  0.61880965  0.09353888  0.76774624     0.03900
N2401       N  0.59191807  0.05872784  0.78275330     0.66400
H2402       H  0.60847970  0.04833261  0.74208620     0.15300
H2403       H  0.69232704  0.20462454  0.76621584     0.15000
N2404       N  0.72518337  0.19157449  0.73022792     0.74100
O2405       O  0.55451442  0.02704821  0.77694317    -0.39300
O2406       O  0.61008436  0.05452057  0.79961623    -0.39300
O2407       O  0.72471362  0.22560556  0.72382282    -0.40000
O2408       O  0.76163986  0.19232776  0.73078829    -0.40100
C2409       C  0.90059300  0.00394827  0.76260062    -0.12300
C2410       C  0.85958982  0.47483019  0.76653822     0.04700
C2411       C  0.83094745  0.47880745  0.75149527    -0.07600
C2412       C  0.84844435  0.50473108  0.73244494    -0.08400
C2413       C  0.88556201  0.03231391  0.72940879    -0.02900
C2414       C  0.91562529  0.02707099  0.74270486     0.03900
N2415       N  0.96016242  0.04139443  0.73546795     0.66400
H2416       H  0.92478802  0.00308569  0.77323593     0.15300
H2417       H  0.82601391  0.50837343  0.72161104     0.15000
N2418       N  0.78381172  0.45467287  0.75433295     0.74100
O2419       O  0.99036105  0.04984845  0.74918815    -0.39300
O2420       O  0.96782981  0.03890918  0.71554395    -0.39300
O2421       O  0.76428718  0.47521055  0.75963753    -0.40000
O2422       O  0.76138970  0.41620151  0.74647326    -0.40100
C2423       C  0.83740836  0.37000711  0.74578327    -0.12300
C2424       C  0.83824785  0.34924749  0.76519551     0.04700
C2425       C  0.85000667  0.31645550  0.76467601    -0.07600
C2426       C  0.86628886  0.30903728  0.74527607    -0.08400
C2427       C  0.87121152  0.33448193  0.72661194    -0.02900
C2428       C  0.85439046  0.36347518  0.72655596     0.03900
N2429       N  0.85916077  0.39032624  0.70789367     0.66400
H2430       H  0.82711701  0.39430142  0.74591344     0.15300
H2431       H  0.87751334  0.28536025  0.74510460     0.15000
N2432       N  0.84780678  0.29228483  0.78388652     0.74100
O2433       O  0.82531068  0.38342150  0.69728084    -0.39300
O2434       O  0.89717057  0.42103010  0.70200784    -0.39300
O2435       O  0.81345805  0.25508499  0.78748829    -0.40000
O2436       O  0.88283916  0.30330109  0.79448541    -0.40100
C2437       C  0.95649736  0.11205441  0.30013300    -0.12300
C2438       C  0.98002042  0.13723660  0.28197653     0.04700
C2439       C  0.52154625  0.16594408  0.28410903    -0.07600
C2440       C  0.54297318  0.16951304  0.30391643    -0.08400
C2441       C  0.52072698  0.13911684  0.32104032    -0.02900
C2442       C  0.97802874  0.11481172  0.31966708     0.03900
N2443       N  0.95140562  0.08730506  0.33735159     0.66400
H2444       H  0.92132995  0.08806553  0.29880405     0.15300
H2445       H  0.57785659  0.19442355  0.30544065     0.15000
N2446       N  0.54632641  0.19398161  0.26624127     0.74100
O2447       O  0.92295271  0.09451525  0.34605698    -0.39300
O2448       O  0.95172482  0.05253031  0.34224481    -0.39300
O2449       O  0.55466482  0.23349326  0.26575827    -0.40000
O2450       O  0.56778470  0.18272173  0.25392402    -0.40100
C2451       C  0.89702901  0.49128813  0.27769921    -0.12300
C2452       C  0.87352493  0.01288311  0.27220221     0.04700
C2453       C  0.83773019  0.00578286  0.28596532    -0.07600
C2454       C  0.82925923  0.98120751  0.30528985    -0.08400
C2455       C  0.85596554  0.46545628  0.31176515    -0.02900
C2456       C  0.89129362  0.47168136  0.29824171     0.03900
N2457       N  0.92508617  0.46380090  0.30608672     0.66400
H2458       H  0.92357157  0.49398581  0.26751591     0.15300
H2459       H  0.80210620  0.97651838  0.31570873     0.15000
N2460       N  0.81210845  0.02633054  0.28195087     0.74100
O2461       O  0.93332354  0.43790463  0.29571494    -0.39300
O2462       O  0.95474575  0.49219786  0.31835370    -0.39300
O2463       O  0.77333437  0.00340859  0.27436249    -0.40000
O2464       O  0.82356834  0.06315140  0.29071398    -0.40100
C2465       C  0.50279484  0.40826348  0.28367526    -0.12300
C2466       C  0.98593242  0.36641222  0.27707758     0.04700
C2467       C  0.99520362  0.33884411  0.29046157    -0.07600
C2468       C  0.51614607  0.35260859  0.31093198    -0.08400
C2469       C  0.53003278  0.39588436  0.31807197    -0.02900
C2470       C  0.52109065  0.42301818  0.30445610     0.03900
N2471       N  0.52853206  0.46502563  0.31189744     0.66400
H2472       H  0.50007750  0.43152434  0.27312527     0.15300
H2473       H  0.52286916  0.33115108  0.32093274     0.15000
N2474       N  0.98101646  0.29424636  0.28456702     0.74100
O2475       O  0.54305735  0.49747832  0.29892200    -0.39300
O2476       O  0.51749237  0.46893361  0.33100388    -0.39300
O2477       O  0.00877869  0.28548438  0.27637610    -0.40000
O2478       O  0.94467738  0.26309419  0.29193167    -0.40100
C2479       C  0.87779662  0.33841461  0.30140588    -0.12300
C2480       C  0.85682470  0.33780217  0.28179727     0.04700
C2481       C  0.82416713  0.34987424  0.28197819    -0.07600
C2482       C  0.81678193  0.36729503  0.30104164    -0.08400
C2483       C  0.84272150  0.37424092  0.31980559    -0.02900
C2484       C  0.87132323  0.35673941  0.32033427     0.03900
N2485       N  0.89840708  0.36256464  0.33893801     0.66400
H2486       H  0.90267990  0.32870898  0.30149661     0.15300
H2487       H  0.79294715  0.37835190  0.30068992     0.15000
N2488       N  0.80078744  0.34785889  0.26252825     0.74100
O2489       O  0.89295985  0.32927565  0.34958455    -0.39300
O2490       O  0.92903716  0.40083084  0.34421344    -0.39300
O2491       O  0.76258850  0.31475267  0.25927331    -0.40000
O2492       O  0.81434087  0.38220176  0.25091735    -0.40100
C2493       C  0.65936656  0.04902625  0.29798757    -0.12300
C2494       C  0.65845234  0.02473476  0.27979351     0.04700
C2495       C  0.64167911  0.47768021  0.28231260    -0.07600
C2496       C  0.62451405  0.45770484  0.30256482    -0.08400
C2497       C  0.61940273  0.48162794  0.31968667    -0.02900
C2498       C  0.63749350  0.02804261  0.31723099     0.03900
N2499       N  0.63174401  0.05445658  0.33334887     0.66400
H2500       H  0.67322396  0.08434827  0.29650367     0.15300
H2501       H  0.61240665  0.42261729  0.30438295     0.15000
N2502       N  0.63896180  0.45090821  0.26420934     0.74100
O2503       O  0.66352418  0.09283501  0.33764812    -0.39300
O2504       O  0.59400986  0.04181030  0.34156331    -0.39300
O2505       O  0.66663112  0.43806971  0.26256566    -0.40000
O2506       O  0.60411018  0.43264454  0.25280100    -0.40100
C2507       C  0.57832329  0.10594633  0.30278940    -0.12300
C2508       C  0.60764191  0.13898558  0.31729045     0.04700
C2509       C  0.65224725  0.16733257  0.31046316    -0.07600
C2510       C  0.66693367  0.15956632  0.29056631    -0.08400
C2511       C  0.63715745  0.12653861  0.27624294    -0.02900
C2512       C  0.59157023  0.10307422  0.28165444     0.03900
N2513       N  0.55835862  0.07893833  0.26540453     0.66400
H2514       H  0.54397839  0.08391640  0.30739766     0.15300
H2515       H  0.70199953  0.17893635  0.28667523     0.15000
N2516       N  0.68297041  0.20454300  0.32317794     0.74100
O2517       O  0.52220028  0.04448064  0.27042773    -0.39300
O2518       O  0.56330398  0.09474563  0.24639880    -0.39300
O2519       O  0.71638514  0.20506526  0.33133315    -0.40000
O2520       O  0.68285985  0.24039120  0.32157010    -0.40100
C2521       C  0.83122657  0.50538334  0.42575279    -0.12300
C2522       C  0.78511985  0.48963889  0.42645784     0.04700
C2523       C  0.75946682  0.46649533  0.40779868    -0.07600
C2524       C  0.78058968  0.46277905  0.38920746    -0.08400
C2525       C  0.82501398  0.47428088  0.38970255    -0.02900
C2526       C  0.85090334  0.49679308  0.40791739     0.03900
N2527       N  0.89707091  0.51100989  0.40858113     0.66400
H2528       H  0.85202752  0.52270412  0.43960700     0.15300
H2529       H  0.76034624  0.44357631  0.37550971     0.15000
N2530       N  0.71252646  0.43727353  0.40867898     0.74100
O2531       O  0.91027408  0.49145281  0.42110507    -0.39300
O2532       O  0.92488765  0.54863960  0.40094833    -0.39300
O2533       O  0.68954377  0.43583132  0.39254950    -0.40000
O2534       O  0.69958911  0.40147172  0.41866774    -0.40100
C2535       C  0.69372240  0.51455116  0.41984724    -0.12300
C2536       C  0.67156384  0.49711311  0.43949503     0.04700
C2537       C  0.62521526  0.47763204  0.44020791    -0.07600
C2538       C  0.60130212  0.46754554  0.42050046    -0.08400
C2539       C  0.62338627  0.47586321  0.40012614    -0.02900
C2540       C  0.67085079  0.50498646  0.40021104     0.03900
N2541       N  0.69930857  0.02495228  0.38063293     0.66400
H2542       H  0.73192668  0.03450646  0.41909305     0.15300
H2543       H  0.56535339  0.45067086  0.42114704     0.15000
N2544       N  0.60263074  0.47003319  0.46063237     0.74100
O2545       O  0.70956949  0.06403121  0.37583201    -0.39300
O2546       O  0.71621502  0.50722412  0.37146278    -0.39300
O2547       O  0.59966312  0.50103220  0.46929826    -0.40000
O2548       O  0.59181736  0.43538637  0.47151922    -0.40100
C2549       C  0.68521558  0.17207184  0.42216296    -0.12300
C2550       C  0.68478274  0.20427917  0.43570148     0.04700
C2551       C  0.65383958  0.21752793  0.43095193    -0.07600
C2552       C  0.63090842  0.20548233  0.41115229    -0.08400
C2553       C  0.62891153  0.17149043  0.39822651    -0.02900
C2554       C  0.65594472  0.15401478  0.40433870     0.03900
N2555       N  0.65545219  0.11915053  0.39218867     0.66400
H2556       H  0.70818479  0.16061970  0.42530962     0.15300
H2557       H  0.61288731  0.22164674  0.40652604     0.15000
N2558       N  0.64229187  0.23979565  0.44683314     0.74100
O2559       O  0.69035508  0.12618576  0.38258803    -0.39300
O2560       O  0.61987977  0.08236826  0.38999094    -0.39300
O2561       O  0.63447057  0.26960714  0.44097386    -0.40000
O2562       O  0.63495643  0.22623369  0.46634067    -0.40100
C2563       C  0.84924949  0.35437812  0.42650500    -0.12300
C2564       C  0.80863251  0.33989345  0.43730828     0.04700
C2565       C  0.78460764  0.36089832  0.43173172    -0.07600
C2566       C  0.79144444  0.38119459  0.41136661    -0.08400
C2567       C  0.83003737  0.39280919  0.39940727    -0.02900
C2568       C  0.86221754  0.38465111  0.40892337     0.03900
N2569       N  0.90853724  0.41007156  0.40290531     0.66400
H2570       H  0.87145323  0.34328729  0.43188522     0.15300
H2571       H  0.76763548  0.38964021  0.40555682     0.15000
N2572       N  0.76102550  0.37000324  0.44805823     0.74100
O2573       O  0.93765622  0.41813680  0.41722539    -0.39300
O2574       O  0.92086653  0.43130613  0.38514656    -0.39300
O2575       O  0.78259713  0.39639865  0.46329061    -0.40000
O2576       O  0.72078593  0.35834359  0.44537011    -0.40100
C2577       C  0.49111233  0.32233925  0.42380517    -0.12300
C2578       C  0.52429545  0.32276280  0.43689203     0.04700
C2579       C  0.56895840  0.35109749  0.43074587    -0.04600
C2580       C  0.57950272  0.37608460  0.41155032    -0.08400
C2581       C  0.54681215  0.37644250  0.39846720    -0.02900
C2582       C  0.50159736  0.34727712  0.40440750     0.03900
N2583       N  0.96700967  0.34027164  0.38999451     0.66400
H2584       H  0.95794970  0.29984795  0.42687150     0.15300
H2585       H  0.61399470  0.39605253  0.40703488     0.15000
N2586       N  0.60442887  0.35455508  0.44360159     0.74100
O2587       O  0.95150305  0.30744582  0.37730981    -0.39300
O2588       O  0.94182817  0.35421568  0.39583313    -0.39300
O2589       O  0.61322799  0.37375241  0.46176981    -0.40000
O2590       O  0.62945998  0.34186648  0.43593743    -0.40100
C2591       C  0.51413859  0.15409463  0.43645639    -0.12300
C2592       C  0.50876991  0.19091969  0.43295473     0.04700
C2593       C  0.51560801  0.20960716  0.41197159    -0.07600
C2594       C  0.52980586  0.19353998  0.39533963    -0.08400
C2595       C  0.53610355  0.15775257  0.39859507    -0.02900
C2596       C  0.52708046  0.13669501  0.41911287     0.03900
N2597       N  0.53171090  0.09875262  0.42243736     0.66400
H2598       H  0.50897179  0.13951433  0.45258960     0.15300
H2599       H  0.53662905  0.20978394  0.37952263     0.15000
N2600       N  0.50732061  0.24442595  0.40684756     0.74100
O2601       O  0.55709238  0.09912016  0.43717001    -0.39300
O2602       O  0.51352483  0.06638330  0.40947530    -0.39300
O2603       O  0.46747245  0.23520248  0.40571570    -0.40000
O2604       O  0.53686970  0.27803071  0.39671014    -0.40100
C2605       C  0.00277958  0.18613076  0.06720188    -0.12300
C2606       C  0.97225732  0.20037734  0.06319854     0.04700
C2607       C  0.94579409  0.19971047  0.08073087    -0.07600
C2608       C  0.95600044  0.19274400  0.10179656    -0.08400
C2609       C  0.97602046  0.16716190  0.10458400    -0.02900
C2610       C  0.00264952  0.16668667  0.08732816     0.03900
N2611       N  0.51244547  0.12630591  0.08509335     0.66400
H2612       H  0.51420639  0.17395835  0.05129799     0.15300
H2613       H  0.93838807  0.19665707  0.11534100     0.15000
N2614       N  0.90330182  0.19549628  0.07707258     0.74100
O2615       O  0.49042920  0.08774030  0.07728924    -0.39300
O2616       O  0.55330790  0.14267962  0.08896312    -0.39300
O2617       O  0.87810964  0.16873748  0.06272721    -0.40000
O2618       O  0.88644732  0.20802015  0.09154641    -0.40100
C2619       C  0.83547057  0.33561763  0.06323933    -0.12300
C2620       C  0.79042411  0.30134925  0.06334941     0.04700
C2621       C  0.76744409  0.29169476  0.08360190    -0.07600
C2622       C  0.79224518  0.30298251  0.10311949    -0.08400
C2623       C  0.83829878  0.33190900  0.10262726    -0.02900
C2624       C  0.85817843  0.35340520  0.08284370     0.03900
N2625       N  0.90119624  0.39274811  0.08256186     0.66400
H2626       H  0.85380495  0.34791564  0.04812342     0.15300
H2627       H  0.77581120  0.28981396  0.11862589     0.15000
N2628       N  0.71989227  0.27141942  0.08444628     0.74100
O2629       O  0.93377432  0.39277159  0.07370086    -0.39300
O2630       O  0.90478589  0.42914281  0.08799317    -0.39300
O2631       O  0.69882802  0.25306241  0.10176856    -0.40000
O2632       O  0.69980820  0.27796467  0.06909611    -0.40100
C2633       C  0.99674494  0.30217036  0.07137504    -0.12300
C2634       C  0.96433985  0.28163698  0.05501414     0.04700
C2635       C  0.92483851  0.28305129  0.05664278    -0.07600
C2636       C  0.91608183  0.29938342  0.07564204    -0.08400
C2637       C  0.94698207  0.31759729  0.09277420    -0.02900
C2638       C  0.98872905  0.32081245  0.08996150     0.03900
N2639       N  0.52241833  0.33543894  0.10631139     0.66400
H2640       H  0.52675268  0.29647605  0.07005572     0.15300
H2641       H  0.88384762  0.29610375  0.07719162     0.15000
N2642       N  0.89203565  0.26580868  0.03969803     0.74100
O2643       O  0.52638710  0.31042995  0.11982147    -0.39300
O2644       O  0.55347239  0.37517699  0.10427842    -0.39300
O2645       O  0.87346750  0.22557541  0.03427002    -0.40000
O2646       O  0.87964545  0.29036567  0.03097051    -0.40100
C2647       C  0.66517789  0.14673515  0.08647444    -0.12300
C2648       C  0.69558861  0.15007889  0.10235221     0.04700
C2649       C  0.74125289  0.17979094  0.09873145    -0.07600
C2650       C  0.75617850  0.20220219  0.07873778    -0.08400
C2651       C  0.72583935  0.19972938  0.06303185    -0.02900
C2652       C  0.67972851  0.17138301  0.06705411     0.03900
N2653       N  0.64714835  0.16691791  0.05153897     0.66400
H2654       H  0.62996734  0.12360213  0.08873646     0.15300
H2655       H  0.79153601  0.22407476  0.07607331     0.15000
N2656       N  0.77208357  0.19112865  0.11618845     0.74100
O2657       O  0.62314978  0.13011944  0.04228004    -0.39300
O2658       O  0.63613525  0.19601437  0.05058059    -0.39300
O2659       O  0.80821651  0.19208872  0.11319960    -0.40000
O2660       O  0.76667417  0.20785554  0.13324704    -0.40100
C2661       C  0.79932939  0.05398671  0.07659393    -0.12300
C2662       C  0.79977024  0.02482408  0.06109865     0.04700
C2663       C  0.82525085  0.00461526  0.06577923    -0.07600
C2664       C  0.85077013  0.01564912  0.08481511    -0.08400
C2665       C  0.84917644  0.04397168  0.10036587    -0.02900
C2666       C  0.82025372  0.06032262  0.09674226     0.03900
N2667       N  0.80961015  0.08117088  0.11373668     0.66400
H2668       H  0.78143593  0.07109250  0.07347814     0.15300
H2669       H  0.87079192  0.49994277  0.08796705     0.15000
N2670       N  0.82430500  0.46996560  0.05241759     0.74100
O2671       O  0.81435179  0.11887985  0.11054625    -0.39300
O2672       O  0.78884760  0.05907518  0.13040825    -0.39300
O2673       O  0.86096066  0.47710537  0.04479641    -0.40000
O2674       O  0.79159166  0.43081642  0.05281274    -0.40100
C2675       C  0.67581276  0.04805457  0.07900406    -0.12300
C2676       C  0.67452628  0.02474894  0.09773099     0.04700
C2677       C  0.68400967  0.99034749  0.09633122    -0.07600
C2678       C  0.69943944  0.98331772  0.07649560    -0.08400
C2679       C  0.70634091  0.01112875  0.05848153    -0.02900
C2680       C  0.69255527  0.04249488  0.05959607     0.03900
N2681       N  0.70030847  0.07266190  0.04205761     0.66400
H2682       H  0.66683583  0.07319890  0.07978596     0.15300
H2683       H  0.70863248  0.95814511  0.07551149     0.15000
N2684       N  0.67991867  0.96381011  0.11493405     0.74100
O2685       O  0.66781611  0.06853319  0.03114314    -0.39300
O2686       O  0.73728548  0.10833186  0.04075740    -0.39300
O2687       O  0.64257971  0.93040492  0.11946261    -0.40000
O2688       O  0.71440170  0.96772575  0.12367320    -0.40100
C2689       C  0.70292749  0.19524118  0.94292175    -0.12300
C2690       C  0.65675397  0.16864184  0.94582992     0.04700
C2691       C  0.64061254  0.15000975  0.96653431    -0.07600
C2692       C  0.66829830  0.16772432  0.98476016    -0.08400
C2693       C  0.71370794  0.20030420  0.98250001    -0.02900
C2694       C  0.73189919  0.20825138  0.96108699     0.03900
N2695       N  0.77885668  0.22767404  0.95773860     0.66400
H2696       H  0.71619708  0.20580902  0.92661564     0.15300
H2697       H  0.65322540  0.15711083  0.00070408     0.15000
N2698       N  0.59645382  0.11299813  0.96922195     0.74100
O2699       O  0.80157446  0.22130202  0.97168220    -0.39300
O2700       O  0.79659271  0.24574287  0.93975356    -0.39300
O2701       O  0.58846737  0.07504915  0.96354053    -0.40000
O2702       O  0.56927788  0.11598578  0.98160280    -0.40100
C2703       C  0.48578509  0.15772815  0.94610048    -0.12300
C2704       C  0.53131699  0.17125389  0.94834609     0.04700
C2705       C  0.55087930  0.18822945  0.96908598    -0.07600
C2706       C  0.52513926  0.18785386  0.98659795    -0.08400
C2707       C  0.48278930  0.18110568  0.98332207    -0.02900
C2708       C  0.46210593  0.16420232  0.96305697     0.03900
N2709       N  0.92009948  0.15805309  0.96098356     0.66400
H2710       H  0.97046932  0.14811679  0.93166279     0.15300
H2711       H  0.54186520  0.20249613  0.00186991     0.15000
N2712       N  0.59711859  0.21758117  0.97174898     0.74100
O2713       O  0.91228495  0.18035305  0.94739784    -0.39300
O2714       O  0.88822200  0.12339717  0.96928160    -0.39300
O2715       O  0.61084691  0.25753576  0.96687944    -0.40000
O2716       O  0.61605003  0.21011087  0.98731009    -0.40100
C2717       C  0.77042875  0.32637088  0.94783147    -0.12300
C2718       C  0.81565730  0.35390163  0.94385882     0.04700
C2719       C  0.84612449  0.35556212  0.95963661    -0.07600
C2720       C  0.83022356  0.32839229  0.97834260    -0.08400
C2721       C  0.78435310  0.30202249  0.98243874    -0.02900
C2722       C  0.75509709  0.30406394  0.96760411     0.03900
N2723       N  0.70931178  0.28417246  0.97232418     0.66400
H2724       H  0.74634036  0.32451748  0.93612621     0.15300
H2725       H  0.85369105  0.32923566  0.99014376     0.15000
N2726       N  0.89242528  0.38767959  0.95823798     0.74100
O2727       O  0.68274955  0.26209997  0.95737679    -0.39300
O2728       O  0.69686392  0.29985172  0.98741502    -0.39300
O2729       O  0.90765870  0.42346355  0.96868769    -0.40000
O2730       O  0.91889198  0.37650406  0.95077735    -0.40100
C2731       C  0.82198027  0.45496482  0.96432856    -0.12300
C2732       C  0.82656729  0.47704135  0.94464668     0.04700
C2733       C  0.81748269  0.51164826  0.94369504    -0.07600
C2734       C  0.80347520  0.02483404  0.96279790    -0.08400
C2735       C  0.79402493  0.49769435  0.98170697    -0.02900
C2736       C  0.80436505  0.46365985  0.98264313     0.03900
N2737       N  0.79375231  0.43502840  0.00123242     0.66400
H2738       H  0.82876985  0.42816688  0.96504302     0.15300
H2739       H  0.79920394  0.05323891  0.96229008     0.15000
N2740       N  0.82419263  0.03698488  0.92427953     0.74100
O2741       O  0.75395892  0.41281000  0.00772513    -0.39300
O2742       O  0.82108250  0.42384025  0.00749766    -0.39300
O2743       O  0.79028793  0.02946068  0.91351782    -0.40000
O2744       O  0.86125417  0.07091724  0.91991534    -0.40100
C2745       C  0.47996451  0.32119233  0.95021923    -0.12300
C2746       C  0.51252154  0.32172644  0.93672021     0.04700
C2747       C  0.52695040  0.29172618  0.94111627    -0.07600
C2748       C  0.51594378  0.26925848  0.96102310    -0.08400
C2749       C  0.48359652  0.26846112  0.97497663    -0.02900
C2750       C  0.46419925  0.29384836  0.96867837     0.03900
N2751       N  0.92684495  0.29016734  0.98014888     0.66400
H2752       H  0.46825453  0.34378814  0.94716840     0.15300
H2753       H  0.53446449  0.25401707  0.96555621     0.15000
N2754       N  0.55154586  0.28271286  0.92533096     0.74100
O2755       O  0.92987625  0.32472843  0.98816300    -0.39300
O2756       O  0.88905994  0.25601185  0.97792435    -0.39300
O2757       O  0.58866701  0.28723679  0.93027058    -0.40000
O2758       O  0.53180639  0.26099802  0.90849206    -0.40100
C2759       C  0.67105571  0.49535105  0.94630316    -0.12300
C2760       C  0.64000192  0.44949693  0.94586381     0.04700
C2761       C  0.64094491  0.42272208  0.96301780    -0.07600
C2762       C  0.67409052  0.44109774  0.97879311    -0.08400
C2763       C  0.70383398  0.48660155  0.97958260    -0.02900
C2764       C  0.70139772  0.51437131  0.96357271     0.03900
N2765       N  0.72665684  0.06212808  0.96527430     0.66400
H2766       H  0.67030841  0.01722728  0.93357175     0.15300
H2767       H  0.67410009  0.42005798  0.99182363     0.15000
N2768       N  0.60523483  0.37859042  0.96680168     0.74100
O2769       O  0.75097014  0.08449474  0.94943815    -0.39300
O2770       O  0.71720002  0.08148831  0.97978551    -0.39300
O2771       O  0.61385081  0.34791279  0.96897322    -0.40000
O2772       O  0.56969278  0.37343252  0.97488408    -0.40100
C2773       C  0.55323914  0.92425153  0.89989842     0.86400
C2774       C  0.51887932  0.88241930  0.91216477    -0.53800
C2775       C  0.53696072  0.86008305  0.92226393     0.09300
C2776       C  0.58805293  0.88292921  0.91939267     0.20300
C2777       C  0.58832337  0.95236963  0.91711785    -0.54500
C2778       C  0.60618285  0.93052461  0.92771577     0.09500
C2779       C  0.57509874  0.90650720  0.88478407    -0.54100
C2780       C  0.59515462  0.88669232  0.89474557     0.10000
H2781       H  0.48372593  0.87145119  0.91257141     0.14500
H2782       H  0.60420572  0.86643644  0.92721977     0.00300
H2783       H  0.59694216  0.98603523  0.92096760     0.14800
H2784       H  0.56380432  0.89832483  0.86831568     0.14600
C2785       C  0.87368647  0.94244142  0.89903603     0.86400
C2786       C  0.87143016  0.97558992  0.91458978    -0.53800
C2787       C  0.83195574  0.95738266  0.92563202     0.09300
C2788       C  0.79910079  0.90841301  0.92030701     0.20300
C2789       C  0.86466390  0.90283205  0.91354876    -0.54500
C2790       C  0.82615691  0.88572002  0.92530756     0.09500
C2791       C  0.83273939  0.92649373  0.88470984    -0.54100
C2792       C  0.79345656  0.90682200  0.89554406     0.10000
H2793       H  0.89904606  0.00878950  0.91770203     0.14500
H2794       H  0.76720461  0.89504157  0.92929235     0.00300
H2795       H  0.88745769  0.89056686  0.91472165     0.14800
H2796       H  0.83495722  0.93426690  0.86765290     0.14600
C2797       C  0.56645249  0.62075753  0.90104270     0.86400
C2798       C  0.60354353  0.62423440  0.91584342    -0.53800
C2799       C  0.62399331  0.66207315  0.92799950     0.09300
C2800       C  0.60495315  0.69335323  0.92414623     0.20300
C2801       C  0.53460306  0.62573588  0.91676710    -0.54500
C2802       C  0.55447159  0.66335539  0.92952017     0.09500
C2803       C  0.58907891  0.66336612  0.88770307    -0.54100
C2804       C  0.60810825  0.70167794  0.89908415     0.10000
H2805       H  0.61185527  0.59839501  0.91725745     0.14500
H2806       H  0.62143182  0.72463733  0.93314477     0.00300
H2807       H  0.49982052  0.60026843  0.91842721     0.14800
H2808       H  0.59297448  0.66325662  0.87040957     0.14600
O2809       O  0.60450493  0.76519999  0.82972868    -0.81900
C2810       C  0.75141331  0.88121921  0.88344732     0.97500
O2811       O  0.74407203  0.84592665  0.87421420    -0.71000
O2812       O  0.66836334  0.77045824  0.88452122    -0.74600
Al2813     Al  0.69632691  0.80092816  0.85731024     1.49000
C2814       C  0.62682512  0.74436716  0.88643345     0.92700
O2815       O  0.60172598  0.82643037  0.88110832    -0.80800
O2816       O  0.66545168  0.88669136  0.82686780    -0.74400
Al2817     Al  0.60624983  0.79731461  0.85556331     1.90100
O2818       O  0.65063903  0.89407161  0.87035906    -0.73400
O2819       O  0.74280536  0.89462015  0.83641392    -0.73300
O2820       O  0.72639415  0.89684223  0.88012451    -0.78900
O2821       O  0.72783918  0.82678661  0.83051655    -0.77100
O2822       O  0.66553681  0.82873329  0.85565994    -1.13300
O2823       O  0.65577031  0.75057424  0.84018623    -0.72500
C2824       C  0.62385901  0.74310245  0.82772199     0.98300
C2825       C  0.61751344  0.86788352  0.88195960     0.94700
Al2826     Al  0.69377654  0.88782464  0.85364805     1.55600
O2827       O  0.60053651  0.74995558  0.87440561    -0.77100
C2828       C  0.75049244  0.86782923  0.82633562     0.98800
C2829       C  0.62402131  0.87032413  0.82519600     0.93700
O2830       O  0.59784009  0.83738812  0.83692298    -0.82400
C2831       C  0.73059296  0.00391447  0.99955545     0.02200
C2832       C  0.77316699  0.00895659  0.00054012     0.02200
C2833       C  0.79571912  0.51544606  0.02078338    -0.18300
C2834       C  0.77450594  0.51537451  0.04023481     0.02200
C2835       C  0.73124887  0.50977843  0.03879896     0.02200
C2836       C  0.71117221  0.50443895  0.01839966    -0.18300
H2837       H  0.67760471  0.49860737  0.01748970     0.04200
H2838       H  0.82914252  0.52099193  0.02123093     0.04200
C2839       C  0.62795606  0.55678572  0.14464125     0.86400
C2840       C  0.64036281  0.59866222  0.13089520    -0.53800
C2841       C  0.68031721  0.61579001  0.12020929     0.09300
C2842       C  0.70433627  0.59005397  0.12486615     0.20300
C2843       C  0.62975597  0.52449363  0.12855326    -0.54500
C2844       C  0.66983876  0.54178118  0.11820818     0.09500
C2845       C  0.66759966  0.56982149  0.15966730    -0.54100
C2846       C  0.70791851  0.58933651  0.14979519     0.10000
H2847       H  0.61844667  0.61186556  0.12878899     0.14500
H2848       H  0.73646333  0.60328102  0.11624807     0.00300
H2849       H  0.60102551  0.49266842  0.12434213     0.14800
H2850       H  0.66362109  0.56110623  0.17658994     0.14600
C2851       C  0.93195379  0.87588654  0.14359371     0.86400
C2852       C  0.95718534  0.86957413  0.12444639    -0.53800
C2853       C  0.93180937  0.83024379  0.11319137     0.09300
C2854       C  0.88383413  0.80179910  0.12256917     0.20300
C2855       C  0.89004278  0.87150606  0.13282700    -0.54500
C2856       C  0.86535447  0.83342469  0.12135500     0.09500
C2857       C  0.91649816  0.83427105  0.15726433    -0.54100
C2858       C  0.88981443  0.79531665  0.14706336     0.10000
H2859       H  0.99058796  0.89471476  0.11974880     0.14500
H2860       H  0.86310520  0.77028575  0.11387393     0.00300
H2861       H  0.88382623  0.89885735  0.13198029     0.14800
H2862       H  0.92987162  0.83553835  0.17323620     0.14600
C2863       C  0.93863007  0.56667393  0.14359174     0.86400
C2864       C  0.90073426  0.53816909  0.12779309    -0.53800
C2865       C  0.88212374  0.56066636  0.11845724     0.09300
C2866       C  0.90419400  0.60954608  0.12583704     0.20300
C2867       C  0.97218888  0.60753557  0.12999090    -0.54500
C2868       C  0.95391856  0.62993589  0.12043662     0.09500
C2869       C  0.91706827  0.58353338  0.15959509    -0.54100
C2870       C  0.90142201  0.60838278  0.15059824     0.10000
H2871       H  0.88992100  0.50377890  0.12435534     0.14500
H2872       H  0.88869341  0.62696361  0.11850476     0.00300
H2873       H  0.00677432  0.61707695  0.12806935     0.14800
H2874       H  0.90959253  0.57135467  0.17608409     0.14600
O2875       O  0.76035767  0.60303755  0.21123019    -0.81900
C2876       C  0.87186664  0.75325396  0.15990242     0.97500
O2877       O  0.83060146  0.72777306  0.16270916    -0.71000
O2878       O  0.75611080  0.65069014  0.17173055    -0.74600
Al2879     Al  0.80267537  0.69579088  0.18944253     1.49000
C2880       C  0.74882428  0.61485027  0.16306481     0.92700
O2881       O  0.84938994  0.60330124  0.17628226    -0.80800
O2882       O  0.90534646  0.66493711  0.20846881    -0.74400
Al2883     Al  0.80801672  0.61003318  0.19351191     1.90100
O2884       O  0.89723658  0.67031013  0.16436558    -0.73400
O2885       O  0.89824180  0.73606669  0.21524285    -0.73300
O2886       O  0.89882302  0.74729120  0.17088494    -0.78900
O2887       O  0.84216829  0.74529565  0.20726366    -0.77100
O2888       O  0.83490383  0.66918886  0.19090385    -1.13300
O2889       O  0.76961739  0.66900167  0.21586204    -0.72500
C2890       C  0.74928061  0.62817231  0.22033049     0.98300
C2891       C  0.88111257  0.62860010  0.16392407     0.94700
Al2892     Al  0.89441945  0.70170971  0.18979496     1.55600
O2893       O  0.77288365  0.59867497  0.16765791    -0.77100
C2894       C  0.87689368  0.75597477  0.21823444     0.98800
C2895       C  0.88161546  0.63170663  0.22034707     0.93700
O2896       O  0.83965745  0.61289307  0.21959291    -0.82400
C2897       C  0.46635280  0.70130659  0.99978040     0.02200
C2898       C  0.47087375  0.74378460  0.99641470     0.02200
C2899       C  0.46964708  0.76752084  0.01473206    -0.18300
C2900       C  0.96680992  0.75446016  0.03662674     0.02200
C2901       C  0.96563114  0.71391825  0.04031342     0.02200
C2902       C  0.96456270  0.68875138  0.02221945    -0.18300
H2903       H  0.96418860  0.65799256  0.02504613     0.04200
H2904       H  0.47411770  0.80021611  0.01254527     0.04200
C2905       C  0.76664887  0.77354305  0.00241822     0.02200
C2906       C  0.73765377  0.72639052  0.00235496     0.02200
C2907       C  0.72757484  0.70423295  0.02263047    -0.18300
C2908       C  0.74128207  0.72674457  0.04265856     0.02200
C2909       C  0.76914510  0.77392170  0.04275131     0.02200
C2910       C  0.78126487  0.79601273  0.02244525    -0.18300
H2911       H  0.80181011  0.83183918  0.02207528     0.04200
H2912       H  0.70784521  0.66835092  0.02298107     0.04200
C2913       C  0.96348344  0.72796602  0.47895887     0.86400
C2914       C  0.97248832  0.76852591  0.46511307    -0.53800
C2915       C  0.51262938  0.78792170  0.45404538     0.09300
C2916       C  0.53737526  0.76240525  0.45754462     0.20300
C2917       C  0.96494004  0.69542879  0.46259277    -0.54500
C2918       C  0.50278150  0.71393505  0.45191397     0.09500
C2919       C  0.50534047  0.74383868  0.49353942    -0.54100
C2920       C  0.54412829  0.76285067  0.48227080     0.10000
H2921       H  0.94964382  0.78087662  0.46437035     0.14500
H2922       H  0.56791284  0.77407106  0.44795776     0.00300
H2923       H  0.93770332  0.66180351  0.45998292     0.14800
H2924       H  0.50404953  0.73666917  0.51063047     0.14600
C2925       C  0.78245967  0.74245180  0.47764155     0.86400
C2926       C  0.74402442  0.70980298  0.46286044    -0.53800
C2927       C  0.72201841  0.72757151  0.45252471     0.09300
C2928       C  0.74095602  0.77688859  0.45839116     0.20300
C2929       C  0.81301740  0.78206117  0.46270086    -0.54500
C2930       C  0.79119132  0.80104075  0.45274716     0.09500
C2931       C  0.76257068  0.76193405  0.49305118    -0.54100
C2932       C  0.73976401  0.77896571  0.48330263     0.10000
H2933       H  0.73524436  0.67550963  0.46093575     0.14500
H2934       H  0.72303873  0.79073747  0.45021477     0.00300
H2935       H  0.84824603  0.79427984  0.46083230     0.14800
H2936       H  0.77113739  0.76695879  0.51005074     0.14600
C2937       C  0.76811276  0.54490249  0.47748161     0.86400
C2938       C  0.79101229  0.54033799  0.45711167    -0.53800
C2939       C  0.76953805  0.00153933  0.44678357     0.09300
C2940       C  0.72302743  0.97067556  0.45750607     0.20300
C2941       C  0.72288206  0.53653314  0.46924115    -0.54500
C2942       C  0.70091334  0.99908644  0.45795481     0.09500
C2943       C  0.75929476  0.00488316  0.49135478    -0.54100
C2944       C  0.73283307  0.96538018  0.48145708     0.10000
H2945       H  0.82349963  0.56661078  0.45172946     0.14500
H2946       H  0.70169429  0.93818000  0.45001607     0.00300
H2947       H  0.71433403  0.56230901  0.46877882     0.14800
H2948       H  0.77507746  0.00711687  0.50674060     0.14600
O2949       O  0.59202292  0.77226447  0.54100978    -0.81900
C2950       C  0.71355458  0.92327755  0.49424671     0.97500
O2951       O  0.67188774  0.89766549  0.49543847    -0.71000
O2952       O  0.59385690  0.82326579  0.50402353    -0.74600
Al2953     Al  0.64156667  0.86668971  0.52182765     1.49000
C2954       C  0.58637422  0.78835406  0.49425960     0.92700
O2955       O  0.68406677  0.77132909  0.50766220    -0.80800
O2956       O  0.73549912  0.82518567  0.54222883    -0.74400
Al2957     Al  0.64110536  0.77803923  0.52428037     1.90100
O2958       O  0.73488233  0.83921046  0.49824595    -0.73400
O2959       O  0.73120707  0.89787278  0.55012787    -0.73300
O2960       O  0.73881844  0.91647049  0.50629623    -0.78900
O2961       O  0.68242994  0.91595700  0.53967638    -0.77100
O2962       O  0.67080732  0.83726479  0.52338694    -1.13300
O2963       O  0.60804989  0.84015675  0.54804910    -0.72500
C2964       C  0.58452874  0.79891144  0.55143510     0.98300
C2965       C  0.71775319  0.79769808  0.49643461     0.94700
Al2966     Al  0.72997031  0.86712044  0.52417110     1.55600
O2967       O  0.61079493  0.77212596  0.49746991    -0.77100
C2968       C  0.71489074  0.92282299  0.55158385     0.98800
C2969       C  0.70867934  0.79193757  0.55356553     0.93700
O2970       O  0.66732549  0.77552074  0.55133868    -0.82400
C2971       C  0.70693264  0.60613819  0.23372291     0.86400
C2972       C  0.69489244  0.63337676  0.24893012    -0.53800
C2973       C  0.65383872  0.60814555  0.25889037     0.09300
C2974       C  0.62989554  0.55819043  0.25247677     0.20300
C2975       C  0.70354458  0.56866116  0.24835954    -0.54500
C2976       C  0.66341280  0.54404438  0.25836536     0.09500
C2977       C  0.66751570  0.58494130  0.21822758    -0.54100
C2978       C  0.62735781  0.55785378  0.22763404     0.10000
H2979       H  0.71690208  0.66853912  0.25176498     0.14500
H2980       H  0.59725683  0.53631836  0.26033481     0.00300
H2981       H  0.73231412  0.56624829  0.25284820     0.14800
H2982       H  0.67001735  0.59942536  0.20239327     0.14600
C2983       C  0.89449777  0.79643478  0.23297373     0.86400
C2984       C  0.93782134  0.81041784  0.24608148    -0.53800
C2985       C  0.95270233  0.84874081  0.25811943     0.09300
C2986       C  0.92391004  0.87016931  0.25433829     0.20300
C2987       C  0.86151699  0.79445269  0.25026973    -0.54500
C2988       C  0.87714510  0.83329023  0.26149796     0.09500
C2989       C  0.90500153  0.83671264  0.21896883    -0.54100
C2990       C  0.92208316  0.87569550  0.22958298     0.10000
H2991       H  0.95343487  0.79052146  0.24640795     0.14500
H2992       H  0.93406394  0.90142337  0.26281816     0.00300
H2993       H  0.83029321  0.76455710  0.25418155     0.14800
H2994       H  0.89908971  0.83463150  0.20174918     0.14600
C2995       C  0.90451828  0.61175935  0.23288617     0.86400
C2996       C  0.87285197  0.56686489  0.24403445    -0.53800
C2997       C  0.89400286  0.54840139  0.25476580     0.09300
C2998       C  0.94505457  0.57576160  0.25171375     0.20300
C2999       C  0.93643021  0.64078558  0.25089126    -0.54500
C3000       C  0.95796781  0.62188694  0.26062000     0.09500
C3001       C  0.93371067  0.60254810  0.21767242    -0.54100
C3002       C  0.95325679  0.58158585  0.22703341     0.10000
H3003       H  0.83714958  0.55219838  0.24372340     0.14500
H3004       H  0.96422512  0.56268859  0.25974740     0.00300
H3005       H  0.93944971  0.67163443  0.25638058     0.14800
H3006       H  0.94023671  0.61407071  0.20108013     0.14600
O3007       O  0.93029701  0.92641796  0.16927975    -0.81900
C3008       C  0.58604173  0.53882851  0.21464253     0.97500
O3009       O  0.55871001  0.49740921  0.21411044    -0.71000
O3010       O  0.48217945  0.92184815  0.20642343    -0.74600
Al3011     Al  0.52643205  0.96829368  0.18820727     1.49000
C3012       C  0.94746517  0.91745904  0.21672455     0.92700
O3013       O  0.93984190  0.52169514  0.20407627    -0.80800
O3014       O  0.99547561  0.56995808  0.16599690    -0.74400
Al3015     Al  0.94016417  0.97594488  0.18699603     1.90100
O3016       O  0.00970070  0.57253661  0.20966648    -0.73400
O3017       O  0.56349432  0.55750786  0.15871195    -0.73300
O3018       O  0.58106574  0.56484490  0.20233169    -0.78900
O3019       O  0.57581438  0.50537089  0.17011033    -0.77100
O3020       O  0.50010537  0.50053027  0.18651570    -1.13300
O3021       O  0.99613384  0.93587777  0.16207650    -0.72500
C3022       C  0.95480954  0.91631143  0.15841271     0.98300
C3023       C  0.96875916  0.55694837  0.21335883     0.94700
Al3024     Al  0.53393989  0.55970407  0.18466073     1.55600
O3025       O  0.93287254  0.94342779  0.21376698    -0.77100
C3026       C  0.58572526  0.53818517  0.15789259     0.98800
C3027       C  0.95946666  0.54494375  0.15630282     0.93700
O3028       O  0.93844984  0.50379741  0.16008768    -0.82400
C3029       C  0.55376317  0.64479413  0.38048703     0.02200
C3030       C  0.59774461  0.65284788  0.37949100     0.02200
C3031       C  0.61402991  0.64896684  0.35897840    -0.18300
C3032       C  0.58914904  0.64144438  0.33954238     0.02200
C3033       C  0.54638718  0.63712045  0.34099533     0.02200
C3034       C  0.52905246  0.63643003  0.36145990    -0.18300
H3035       H  0.49758480  0.63519613  0.36265930     0.04200
H3036       H  0.64691584  0.65348466  0.35805412     0.04200
C3037       C  0.84003655  0.91366385  0.37773820     0.02200
C3038       C  0.84279182  0.95478466  0.37364922     0.02200
C3039       C  0.84900714  0.97081640  0.35220279    -0.18300
C3040       C  0.85123801  0.94646609  0.33452403     0.02200
C3041       C  0.84568948  0.90388254  0.33842495     0.02200
C3042       C  0.84049551  0.88846204  0.36006786    -0.18300
H3043       H  0.83568704  0.85586147  0.36326443     0.04200
H3044       H  0.85075470  0.00217534  0.34918957     0.04200
C3045       C  0.56391769  0.90624036  0.37867287     0.02200
C3046       C  0.59960863  0.95179628  0.37945366     0.02200
C3047       C  0.61329145  0.97515263  0.35976626    -0.18300
C3048       C  0.59575610  0.95624802  0.33954883     0.02200
C3049       C  0.55797162  0.91299436  0.33878507     0.02200
C3050       C  0.54396311  0.88810443  0.35822753    -0.18300
H3051       H  0.51799775  0.85388418  0.35710436     0.04200
H3052       H  0.63847528  0.00916959  0.36000169     0.04200
C3053       C  0.79166357  0.88639813  0.81205474     0.86400
C3054       C  0.80154177  0.92738927  0.79790003    -0.53800
C3055       C  0.84071773  0.94531502  0.78617495     0.09300
C3056       C  0.86677728  0.92159637  0.79093601     0.20300
C3057       C  0.79402495  0.85435087  0.79591026    -0.54500
C3058       C  0.83343429  0.87296669  0.78479704     0.09500
C3059       C  0.83251580  0.90179797  0.82638991    -0.54100
C3060       C  0.87204442  0.92262553  0.81581278     0.10000
H3061       H  0.77878036  0.93974069  0.79693499     0.14500
H3062       H  0.89879919  0.93464137  0.78233280     0.00300
H3063       H  0.76605479  0.82167349  0.79222500     0.14800
H3064       H  0.83008177  0.89325777  0.84336550     0.14600
C3065       C  0.60525016  0.70300669  0.81288289     0.86400
C3066       C  0.64041983  0.69323610  0.80288816    -0.53800
C3067       C  0.62240465  0.65451268  0.79105263     0.09300
C3068       C  0.57134416  0.62948046  0.79084354     0.20300
C3069       C  0.57766821  0.70235915  0.79330423    -0.54500
C3070       C  0.56019492  0.66383763  0.78171540     0.09500
C3071       C  0.57337502  0.66144350  0.82579982    -0.54100
C3072       C  0.55749722  0.62274497  0.81493826     0.10000
H3073       H  0.67598432  0.71593835  0.80424651     0.14500
H3074       H  0.55500710  0.59847015  0.78130692     0.00300
H3075       H  0.57325257  0.72982411  0.78870536     0.14800
H3076       H  0.56273185  0.66249034  0.84210501     0.14600
C3077       C  0.60604205  0.89445534  0.81197766     0.86400
C3078       C  0.56450709  0.86497212  0.79780947    -0.53800
C3079       C  0.54806435  0.88811230  0.78691528     0.09300
C3080       C  0.57416177  0.93810200  0.79223817     0.20300
C3081       C  0.63929972  0.92997715  0.79631438    -0.54500
C3082       C  0.62268775  0.95292895  0.78607820     0.09500
C3083       C  0.59243160  0.92021607  0.82703244    -0.54100
C3084       C  0.57294631  0.94071370  0.81712932     0.10000
H3085       H  0.55040307  0.82948058  0.79654141     0.14500
H3086       H  0.56294718  0.95869185  0.78392787     0.00300
H3087       H  0.67165032  0.93441090  0.79242818     0.14800
H3088       H  0.60479899  0.92828656  0.84334453     0.14600
O3089       O  0.91995281  0.93199404  0.87387683    -0.81900
C3090       C  0.54026229  0.58110969  0.82761066     0.97500
O3091       O  0.49890056  0.55470535  0.82897976    -0.71000
O3092       O  0.92120482  0.48008293  0.83949874    -0.74600
Al3093     Al  0.97091765  0.52531333  0.85657276     1.49000
C3094       C  0.91398554  0.94843989  0.82831472     0.92700
O3095       O  0.51398336  0.93082410  0.84050775    -0.80800
O3096       O  0.56401890  0.98322116  0.87578708    -0.74400
Al3097     Al  0.97015560  0.93864901  0.85707209     1.90100
O3098       O  0.56434181  0.99916822  0.83176568    -0.73400
O3099       O  0.56099457  0.55585562  0.88407041    -0.73300
O3100       O  0.56699163  0.57567247  0.83951396    -0.78900
O3101       O  0.51400705  0.57559194  0.87309094    -0.77100
O3102       O  0.50166719  0.49619509  0.85629854    -1.13300
O3103       O  0.94061334  0.00026029  0.88326598    -0.72500
C3104       C  0.91458490  0.95919770  0.88524946     0.98300
C3105       C  0.54868909  0.95796428  0.82993186     0.94700
Al3106     Al  0.56055296  0.52666484  0.85759512     1.55600
O3107       O  0.94089718  0.93465393  0.83000529    -0.77100
C3108       C  0.54502802  0.58091360  0.88578619     0.98800
C3109       C  0.53634690  0.94920223  0.88658094     0.93700
O3110       O  0.49517509  0.93352560  0.88415324    -0.82400
C3111       C  0.73831423  0.96490786  0.56504471     0.86400
C3112       C  0.77956238  0.97081821  0.57717853    -0.53800
C3113       C  0.78940400  0.50961800  0.59136259     0.09300
C3114       C  0.77208508  0.54039411  0.58498681     0.20300
C3115       C  0.71133866  0.97242253  0.58264152    -0.54500
C3116       C  0.72212002  0.51344610  0.59085418     0.09500
C3117       C  0.75006192  0.50310634  0.55062290    -0.54100
C3118       C  0.77344025  0.54309979  0.56029872     0.10000
H3119       H  0.78574541  0.94376693  0.57988338     0.14500
H3120       H  0.79131066  0.57357371  0.59252517     0.00300
H3121       H  0.67674157  0.94852636  0.58619085     0.14800
H3122       H  0.74062723  0.49988289  0.53383472     0.14600
C3123       C  0.54397021  0.77937585  0.56612967     0.86400
C3124       C  0.53999302  0.80908894  0.58327919    -0.53800
C3125       C  0.00160271  0.78584530  0.59504104     0.09300
C3126       C  0.96963334  0.73692062  0.58808981     0.20300
C3127       C  0.53797987  0.73888723  0.57914453    -0.54500
C3128       C  0.99838712  0.71517397  0.58988798     0.09500
C3129       C  0.00085056  0.76236994  0.55214724    -0.54100
C3130       C  0.96224710  0.73951214  0.56345216     0.10000
H3131       H  0.56600796  0.84302616  0.58637770     0.14500
H3132       H  0.93829423  0.71933833  0.59764598     0.00300
H3133       H  0.56346602  0.72993611  0.58016573     0.14800
H3134       H  0.00141501  0.77211865  0.53543628     0.14600
C3135       C  0.72717292  0.76860005  0.56696442     0.86400
C3136       C  0.69739223  0.73611860  0.58485996    -0.53800
C3137       C  0.71688182  0.71591586  0.59544511     0.09300
C3138       C  0.76395272  0.72986265  0.58681209     0.20300
C3139       C  0.77111521  0.80098537  0.57870566    -0.54500
C3140       C  0.79028702  0.78073421  0.58964665     0.09500
C3141       C  0.73855823  0.74065914  0.55216273    -0.54100
C3142       C  0.76022159  0.72229564  0.56197638     0.10000
H3143       H  0.66579199  0.73225546  0.58984584     0.14500
H3144       H  0.77736954  0.71146077  0.59529873     0.00300
H3145       H  0.78483474  0.83649724  0.57835123     0.14800
H3146       H  0.72862433  0.73469767  0.53534691     0.14600
O3147       O  0.77826808  0.61345764  0.49209138    -0.81900
C3148       C  0.91993695  0.71573826  0.55113442     0.97500
O3149       O  0.91312814  0.68288383  0.53972684    -0.71000
O3150       O  0.83483631  0.60982444  0.54719671    -0.74600
Al3151     Al  0.86517419  0.64137925  0.52143744     1.49000
C3152       C  0.79317118  0.58432207  0.54759494     0.92700
O3153       O  0.76860293  0.66570382  0.54485323    -0.80800
O3154       O  0.84231564  0.73737675  0.49494539    -0.74400
Al3155     Al  0.77729085  0.64141557  0.51858455     1.90100
O3156       O  0.82143458  0.73471420  0.53918579    -0.73400
O3157       O  0.91665805  0.73719742  0.50477318    -0.73300
O3158       O  0.89524281  0.73208729  0.54900270    -0.78900
O3159       O  0.89772341  0.66914475  0.49570938    -0.77100
O3160       O  0.83625291  0.67118903  0.52073796    -1.13300
O3161       O  0.82460584  0.59290566  0.50301554    -0.72500
C3162       C  0.79297312  0.58719619  0.49081256     0.98300
C3163       C  0.78538196  0.70655743  0.54859528     0.94700
Al3164     Al  0.86637499  0.73030413  0.52192117     1.55600
O3165       O  0.76813209  0.59127906  0.53545662    -0.77100
C3166       C  0.92282450  0.71040248  0.49342308     0.98800
C3167       C  0.80123969  0.71978798  0.49129144     0.93700
O3168       O  0.77367570  0.68481481  0.50129406    -0.82400
C3169       C  0.89585131  0.83851252  0.70629499     0.02200
C3170       C  0.94145926  0.85221262  0.70825309     0.02200
C3171       C  0.96524796  0.85484131  0.68941342    -0.18300
C3172       C  0.94440920  0.84259619  0.66900227     0.02200
C3173       C  0.89877316  0.82834020  0.66696438     0.02200
C3174       C  0.87526320  0.82714257  0.68572389    -0.18300
H3175       H  0.84055918  0.81731609  0.68431438     0.04200
H3176       H  0.99987612  0.86415485  0.69080019     0.04200
C3177       C  0.68126439  0.60455090  0.71420801     0.02200
C3178       C  0.68452906  0.56623459  0.71065291     0.02200
C3179       C  0.68961160  0.55468026  0.68940181    -0.18300
C3180       C  0.68718425  0.57717644  0.67092301     0.02200
C3181       C  0.68316894  0.61525076  0.67434484     0.02200
C3182       C  0.68045864  0.62824160  0.69581441    -0.18300
H3183       H  0.67684025  0.65688064  0.69810414     0.04200
H3184       H  0.69440952  0.52671800  0.68736755     0.04200
C3185       C  0.95138823  0.59314584  0.70539385     0.02200
C3186       C  0.91096257  0.55171774  0.70624056     0.02200
C3187       C  0.88734788  0.53489932  0.68664615    -0.18300
C3188       C  0.90272845  0.55817762  0.66672602     0.02200
C3189       C  0.94475697  0.59817008  0.66558510     0.02200
C3190       C  0.96927354  0.61244959  0.68495865    -0.18300
H3191       H  0.00237368  0.64109965  0.68431657     0.04200
H3192       H  0.85598718  0.50371463  0.68687503     0.04200
C3193       C  0.86102024  0.84721117  0.63822301    -0.12300
C3194       C  0.87592471  0.81892116  0.64533072     0.04700
C3195       C  0.86864332  0.78330789  0.63166315    -0.07600
C3196       C  0.84956933  0.77904699  0.61110172    -0.08400
C3197       C  0.82801893  0.80233313  0.60564910    -0.02900
C3198       C  0.83607892  0.83860385  0.61903572     0.03900
N3199       N  0.81826241  0.86628480  0.61409112     0.66400
H3200       H  0.86680594  0.87503415  0.64828728     0.15300
H3201       H  0.84671893  0.75311123  0.60052112     0.15000
N3202       N  0.87219285  0.74672785  0.63955426     0.74100
O3203       O  0.78340995  0.85958406  0.62368865    -0.39300
O3204       O  0.84258540  0.90288354  0.60454635    -0.39300
O3205       O  0.84949552  0.72584695  0.65604622    -0.40000
O3206       O  0.88440736  0.72692020  0.62665417    -0.40100
C3207       C  0.72922584  0.71206834  0.63497232    -0.12300
C3208       C  0.70123415  0.69309363  0.61691190     0.04700
C3209       C  0.66215968  0.65140369  0.61939293    -0.07600
C3210       C  0.65477254  0.62724457  0.63887744    -0.08400
C3211       C  0.68570699  0.64441342  0.65602654    -0.02900
C3212       C  0.72183747  0.68841780  0.65447604     0.03900
N3213       N  0.75273865  0.70878821  0.67204625     0.66400
H3214       H  0.75843913  0.74478529  0.63360448     0.15300
H3215       H  0.62615327  0.59403755  0.64017825     0.15000
N3216       N  0.63100018  0.63217490  0.60198133     0.74100
O3217       O  0.77175798  0.68992144  0.68050180    -0.39300
O3218       O  0.76167651  0.74634087  0.67890572    -0.39300
O3219       O  0.62993464  0.60132527  0.59095009    -0.40000
O3220       O  0.59855240  0.63846709  0.60109353    -0.40100
C3221       C  0.97939338  0.78038437  0.63375992    -0.12300
C3222       C  0.99317745  0.80559530  0.61452407     0.04700
C3223       C  0.99706622  0.84781848  0.61440971    -0.07600
C3224       C  0.98222000  0.86111322  0.63257628    -0.08400
C3225       C  0.96772475  0.83459926  0.65140503    -0.02900
C3226       C  0.97014188  0.79605308  0.65254770     0.03900
N3227       N  0.96097308  0.77140368  0.67249437     0.66400
H3228       H  0.97296721  0.74718862  0.63415194     0.15300
H3229       H  0.98132610  0.89154694  0.63189758     0.15000
N3230       N  0.50569043  0.87490453  0.59393100     0.74100
O3231       O  0.92143971  0.74546131  0.67850619    -0.39300
O3232       O  0.99209741  0.78160969  0.68587352    -0.39300
O3233       O  0.47584732  0.87250345  0.58145631    -0.40000
O3234       O  0.54490491  0.90724366  0.59204506    -0.40100
C3235       C  0.95768491  0.61056699  0.62423655    -0.12300
C3236       C  0.96300611  0.62803426  0.64550540     0.04700
C3237       C  0.98835475  0.67516712  0.64733956    -0.07600
C3238       C  0.00711745  0.70151770  0.62866504    -0.08400
C3239       C  0.99220593  0.68401749  0.60793346    -0.02900
C3240       C  0.96820629  0.63778589  0.60561556     0.03900
N3241       N  0.95386535  0.61803365  0.58462692     0.66400
H3242       H  0.94525197  0.57601741  0.62172512     0.15300
H3243       H  0.02895995  0.73699267  0.63040266     0.15000
N3244       N  0.99238935  0.69736935  0.66755643     0.74100
O3245       O  0.48528256  0.60660611  0.57672109    -0.39300
O3246       O  0.91727255  0.61124220  0.57717405    -0.39300
O3247       O  0.02962988  0.72923959  0.67343836    -0.40000
O3248       O  0.95830149  0.68681417  0.67897581    -0.40100
C3249       C  0.81287520  0.54250632  0.62798854    -0.12300
C3250       C  0.81844845  0.51937846  0.61070400     0.04700
C3251       C  0.85045825  0.50611337  0.61271592    -0.07600
C3252       C  0.87344878  0.51401590  0.63260269    -0.08400
C3253       C  0.87158770  0.54212685  0.64826802    -0.02900
C3254       C  0.84041692  0.55565503  0.64610076     0.03900
N3255       N  0.83674808  0.58326617  0.66207562     0.66400
H3256       H  0.78765043  0.55163014  0.62742353     0.15300
H3257       H  0.89728977  0.50325167  0.63475717     0.15000
N3258       N  0.86350884  0.48945841  0.59440084     0.74100
O3259       O  0.85746695  0.62473890  0.65924295    -0.39300
O3260       O  0.80645857  0.56605987  0.67632841    -0.39300
O3261       O  0.86151674  0.50168714  0.57524051    -0.40000
O3262       O  0.88531498  0.47022696  0.59750970    -0.40100
C3263       C  0.67562927  0.49933006  0.62406222    -0.12300
C3264       C  0.70368313  0.52917929  0.60823129     0.04700
C3265       C  0.72152725  0.57492635  0.61176092    -0.07600
C3266       C  0.71793028  0.59001453  0.63237951    -0.08400
C3267       C  0.69017825  0.56033403  0.64866907    -0.02900
C3268       C  0.66744453  0.51425227  0.64370732     0.03900
N3269       N  0.64153747  0.97790649  0.65830457     0.66400
H3270       H  0.67491454  0.96256357  0.62370183     0.15300
H3271       H  0.73692830  0.62521728  0.63541977     0.15000
N3272       N  0.74231830  0.60615836  0.59431356     0.74100
O3273       O  0.60263866  0.97156004  0.65770119    -0.39300
O3274       O  0.64771502  0.94814812  0.66619960    -0.39300
O3275       O  0.72357165  0.59853832  0.57594599    -0.40000
O3276       O  0.77856658  0.64185677  0.59733141    -0.40100
C3277       C  0.48152936  0.82986275  0.73543485    -0.12300
C3278       C  0.96441741  0.85994254  0.72972340     0.04700
C3279       C  0.97189101  0.89484798  0.74369805    -0.07600
C3280       C  0.99300181  0.89968825  0.76381747    -0.08400
C3281       C  0.51297521  0.87051919  0.76936927    -0.02900
C3282       C  0.50658983  0.83680869  0.75449812     0.03900
N3283       N  0.52771712  0.81142797  0.75740495     0.66400
H3284       H  0.47694634  0.80397268  0.72427687     0.15300
H3285       H  0.99641268  0.92578674  0.77443080     0.15000
N3286       N  0.96292996  0.92852228  0.73674224     0.74100
O3287       O  0.50522144  0.77218209  0.76450834    -0.39300
O3288       O  0.56437904  0.82379168  0.74802028    -0.39300
O3289       O  0.93986023  0.93835039  0.74867507    -0.40000
O3290       O  0.98704776  0.95550500  0.72208840    -0.40100
C3291       C  0.61988580  0.96256237  0.74687867    -0.12300
C3292       C  0.64320753  0.97909395  0.76630553     0.04700
C3293       C  0.68910402  0.52169564  0.76619837    -0.07600
C3294       C  0.70300931  0.54806070  0.74726742    -0.08400
C3295       C  0.67653540  0.53415909  0.72838663    -0.02900
C3296       C  0.63222367  0.98850801  0.72814278     0.03900
N3297       N  0.60379144  0.97166701  0.70948477     0.66400
H3298       H  0.59012187  0.93009774  0.74654659     0.15300
H3299       H  0.73264253  0.58068116  0.74776314     0.15000
N3300       N  0.71458055  0.53799971  0.78572654     0.74100
O3301       O  0.59108631  0.93286068  0.70298791    -0.39300
O3302       O  0.58329875  0.99061876  0.70305402    -0.39300
O3303       O  0.74783158  0.53351130  0.78854010    -0.40000
O3304       O  0.70978265  0.56458352  0.79761969    -0.40100
C3305       C  0.98502086  0.64115461  0.76283283    -0.12300
C3306       C  0.53531838  0.65584831  0.76121264     0.04700
C3307       C  0.55330538  0.65145895  0.74147800    -0.07600
C3308       C  0.02352821  0.63272349  0.72469258    -0.08400
C3309       C  0.97771171  0.61672930  0.72510571    -0.02900
C3310       C  0.95894986  0.62401871  0.74400636     0.03900
N3311       N  0.91453614  0.61604240  0.74410403     0.66400
H3312       H  0.47736577  0.65018665  0.77681230     0.15300
H3313       H  0.03887756  0.62844816  0.71029135     0.15000
N3314       N  0.59997146  0.66890081  0.73873431     0.74100
O3315       O  0.88783379  0.59214416  0.75891235    -0.39300
O3316       O  0.90598078  0.64135689  0.73315707    -0.39300
O3317       O  0.61300984  0.64963088  0.72598954    -0.40000
O3318       O  0.62684797  0.70858254  0.74400146    -0.40100
C3319       C  0.63868812  0.58565236  0.74943948    -0.12300
C3320       C  0.67354008  0.61759872  0.73649225     0.04700
C3321       C  0.69755911  0.66180975  0.74444490    -0.07600
C3322       C  0.68361933  0.67326826  0.76370132    -0.08400
C3323       C  0.64728916  0.64113983  0.77588497    -0.02900
C3324       C  0.62814362  0.59642903  0.76957765     0.03900
N3325       N  0.60024518  0.56135214  0.78420248     0.66400
H3326       H  0.61899815  0.55176713  0.74400133     0.15300
H3327       H  0.69954446  0.70786314  0.76825616     0.15000
N3328       N  0.73432729  0.69607106  0.73258427     0.74100
O3329       O  0.56265379  0.53062441  0.77797508    -0.39300
O3330       O  0.61779102  0.55549704  0.80085758    -0.39300
O3331       O  0.73251154  0.72925479  0.72595377    -0.40000
O3332       O  0.77157341  0.69854148  0.73359589    -0.40100
C3333       C  0.90534602  0.49749012  0.76150600    -0.12300
C3334       C  0.85500739  0.97903672  0.76797251     0.04700
C3335       C  0.82460831  0.98182995  0.75367642    -0.07600
C3336       C  0.84031944  0.00952827  0.73518621    -0.08400
C3337       C  0.89375958  0.52454979  0.72687082    -0.02900
C3338       C  0.92186918  0.51827257  0.74120738     0.03900
N3339       N  0.96611915  0.52963109  0.73484406     0.66400
H3340       H  0.92853181  0.49651441  0.77281184     0.15300
H3341       H  0.81661715  0.01187311  0.72470450     0.15000
N3342       N  0.77761907  0.95421947  0.75642656     0.74100
O3343       O  0.99586673  0.53997004  0.74907980    -0.39300
O3344       O  0.97419573  0.52413174  0.71539219    -0.39300
O3345       O  0.75485188  0.97159351  0.76139219    -0.40000
O3346       O  0.75824415  0.91531295  0.74893342    -0.40100
C3347       C  0.83696847  0.87508884  0.74470014    -0.12300
C3348       C  0.83852715  0.85475582  0.76415067     0.04700
C3349       C  0.85152553  0.82289014  0.76366732    -0.07600
C3350       C  0.86645301  0.81461612  0.74405580    -0.08400
C3351       C  0.87008634  0.83915078  0.72520134    -0.02900
C3352       C  0.85316992  0.86803393  0.72528603     0.03900
N3353       N  0.85718800  0.89432921  0.70652962     0.66400
H3354       H  0.82665056  0.89938951  0.74491771     0.15300
H3355       H  0.87841149  0.79152759  0.74392964     0.15000
N3356       N  0.85368778  0.80189177  0.78324265     0.74100
O3357       O  0.82328223  0.88525200  0.69537080    -0.39300
O3358       O  0.89478101  0.92599650  0.70078271    -0.39300
O3359       O  0.82296858  0.76292823  0.78759651    -0.40000
O3360       O  0.88977326  0.81846306  0.79365076    -0.40100
C3361       C  0.95698796  0.61122973  0.30007401    -0.12300
C3362       C  0.98034258  0.63619980  0.28183124     0.04700
C3363       C  0.52266111  0.66481604  0.28455814    -0.07600
C3364       C  0.54361785  0.66802292  0.30447505    -0.08400
C3365       C  0.52076134  0.63781673  0.32158663    -0.02900
C3366       C  0.97868743  0.61440925  0.31961769     0.03900
N3367       N  0.95216148  0.58775207  0.33753588     0.66400
H3368       H  0.92177137  0.58727115  0.29884402     0.15300
H3369       H  0.57862538  0.69246236  0.30608605     0.15000
N3370       N  0.54819305  0.69226220  0.26668070     0.74100
O3371       O  0.92473895  0.59627635  0.34637515    -0.39300
O3372       O  0.95103965  0.55222888  0.34235311    -0.39300
O3373       O  0.55720538  0.73197647  0.26586263    -0.40000
O3374       O  0.56982464  0.68036177  0.25488258    -0.40100
C3375       C  0.89714185  0.99164783  0.27780110    -0.12300
C3376       C  0.87312082  0.51191866  0.27154733     0.04700
C3377       C  0.83629106  0.50396768  0.28475979    -0.07600
C3378       C  0.82751611  0.47982895  0.30425046    -0.08400
C3379       C  0.85755676  0.96619686  0.31226427    -0.02900
C3380       C  0.89219193  0.97210916  0.29830512     0.03900
N3381       N  0.92637744  0.96444447  0.30575453     0.66400
H3382       H  0.92314225  0.99413217  0.26725574     0.15300
H3383       H  0.79962663  0.47454344  0.31425776     0.15000
N3384       N  0.80906561  0.52232685  0.27975783     0.74100
O3385       O  0.93447216  0.93863831  0.29519893    -0.39300
O3386       O  0.95622635  0.99283307  0.31795315    -0.39300
O3387       O  0.77181954  0.49815792  0.27082187    -0.40000
O3388       O  0.81696805  0.55787861  0.28883180    -0.40100
C3389       C  0.50259423  0.90777914  0.28437291    -0.12300
C3390       C  0.98630330  0.86503001  0.27653913     0.04700
C3391       C  0.99438643  0.83703456  0.29023770    -0.07600
C3392       C  0.51855797  0.85243500  0.31047848    -0.08400
C3393       C  0.53130036  0.89508478  0.31813562    -0.02900
C3394       C  0.52095260  0.92198188  0.30515658     0.03900
N3395       N  0.52680386  0.96296996  0.31331492     0.66400
H3396       H  0.49926875  0.93113649  0.27421156     0.15300
H3397       H  0.52648578  0.83128757  0.32000926     0.15000
N3398       N  0.97773917  0.79161594  0.28498150     0.74100
O3399       O  0.53866556  0.99557664  0.30065102    -0.39300
O3400       O  0.51571407  0.96522636  0.33265997    -0.39300
O3401       O  0.00416896  0.77994475  0.27794939    -0.40000
O3402       O  0.93977072  0.76246120  0.29175166    -0.40100
C3403       C  0.87937886  0.83834637  0.30174392    -0.12300
C3404       C  0.85789930  0.83747098  0.28227274     0.04700
C3405       C  0.82567038  0.85009629  0.28262094    -0.07600
C3406       C  0.81904260  0.86805683  0.30170116    -0.08400
C3407       C  0.84547620  0.87521178  0.32030376    -0.02900
C3408       C  0.87377721  0.85732119  0.32066810     0.03900
N3409       N  0.90092215  0.86266704  0.33918149     0.66400
H3410       H  0.90395237  0.82823420  0.30170798     0.15300
H3411       H  0.79539741  0.87935397  0.30146297     0.15000
N3412       N  0.80206968  0.84820516  0.26327710     0.74100
O3413       O  0.89638353  0.82902410  0.34912673    -0.39300
O3414       O  0.93071280  0.90086872  0.34506415    -0.39300
O3415       O  0.76296921  0.81624169  0.26056212    -0.40000
O3416       O  0.81699360  0.88182762  0.25101842    -0.40100
C3417       C  0.66166496  0.54850998  0.29797722    -0.12300
C3418       C  0.65900773  0.52330852  0.27984257     0.04700
C3419       C  0.64277840  0.97935640  0.28203394    -0.07600
C3420       C  0.62553469  0.95858339  0.30213547    -0.08400
C3421       C  0.61940451  0.98151070  0.31941667    -0.02900
C3422       C  0.63930664  0.52839211  0.31728130     0.03900
N3423       N  0.63459133  0.55595030  0.33308634     0.66400
H3424       H  0.67683564  0.58398772  0.29629687     0.15300
H3425       H  0.61454917  0.92370464  0.30379458     0.15000
N3426       N  0.64215573  0.95364813  0.26387721     0.74100
O3427       O  0.66717885  0.59399362  0.33717322    -0.39300
O3428       O  0.59697930  0.54488943  0.34099290    -0.39300
O3429       O  0.67116202  0.94249448  0.26251415    -0.40000
O3430       O  0.60807849  0.93478766  0.25195140    -0.40100
C3431       C  0.57768124  0.60343326  0.30353161    -0.12300
C3432       C  0.60697169  0.63640772  0.31807295     0.04700
C3433       C  0.65152444  0.66481516  0.31122842    -0.07600
C3434       C  0.66631860  0.65702235  0.29134521    -0.08400
C3435       C  0.63663865  0.62396982  0.27697959    -0.02900
C3436       C  0.59098903  0.60050100  0.28237891     0.03900
N3437       N  0.55776047  0.57657216  0.26607990     0.66400
H3438       H  0.54329118  0.58158005  0.30812644     0.15300
H3439       H  0.70136674  0.67654950  0.28744237     0.15000
N3440       N  0.68194634  0.70236399  0.32383915     0.74100
O3441       O  0.52076964  0.54325951  0.27120091    -0.39300
O3442       O  0.56325142  0.59214049  0.24699623    -0.39300
O3443       O  0.71554845  0.70346517  0.33211523    -0.40000
O3444       O  0.68124716  0.73789416  0.32211268    -0.40100
C3445       C  0.83446917  0.00746393  0.42610678    -0.12300
C3446       C  0.78821281  0.99110261  0.42687787     0.04700
C3447       C  0.76261052  0.96733538  0.40830013    -0.07600
C3448       C  0.78382032  0.96350117  0.38978403    -0.08400
C3449       C  0.82835347  0.97544669  0.39029101    -0.02900
C3450       C  0.85427758  0.99876150  0.40834528     0.03900
N3451       N  0.90070051  0.01409086  0.40880022     0.66400
H3452       H  0.85532247  0.02537640  0.43984306     0.15300
H3453       H  0.76361648  0.94392387  0.37615763     0.15000
N3454       N  0.71567753  0.93796172  0.40913011     0.74100
O3455       O  0.91478440  0.99439909  0.42067197    -0.39300
O3456       O  0.92777671  0.05223365  0.40144290    -0.39300
O3457       O  0.69273192  0.93683026  0.39304257    -0.40000
O3458       O  0.70278855  0.90193447  0.41891553    -0.40100
C3459       C  0.69594432  0.01487135  0.41946776    -0.12300
C3460       C  0.67388829  0.99786250  0.43917600     0.04700
C3461       C  0.62749893  0.97802343  0.43989018    -0.07600
C3462       C  0.60349265  0.96729388  0.42019635    -0.08400
C3463       C  0.62552833  0.97554029  0.39982078    -0.02900
C3464       C  0.67292937  0.00493203  0.39985147     0.03900
N3465       N  0.69750009  0.52512039  0.38106095     0.66400
H3466       H  0.72970368  0.53409200  0.41950348     0.15300
H3467       H  0.56753642  0.95018463  0.42086858     0.15000
N3468       N  0.60495658  0.97084733  0.46029562     0.74100
O3469       O  0.71215449  0.56570319  0.37755214    -0.39300
O3470       O  0.72266252  0.01036666  0.37273328    -0.39300
O3471       O  0.60174322  0.00193715  0.46867093    -0.40000
O3472       O  0.59447762  0.93660305  0.47145963    -0.40100
C3473       C  0.68307118  0.66836164  0.42335747    -0.12300
C3474       C  0.68567524  0.70331379  0.43588989     0.04700
C3475       C  0.65564975  0.71773251  0.43083765    -0.07600
C3476       C  0.63191730  0.70490184  0.41123933    -0.08400
C3477       C  0.62804373  0.66931634  0.39902599    -0.02900
C3478       C  0.65260769  0.64972934  0.40598499     0.03900
N3479       N  0.64760448  0.61143159  0.39530199     0.66400
H3480       H  0.70434335  0.65509323  0.42698134     0.15300
H3481       H  0.61432211  0.72138460  0.40631865     0.15000
N3482       N  0.64509264  0.74128712  0.44642233     0.74100
O3483       O  0.67802122  0.61541667  0.38281105    -0.39300
O3484       O  0.61073856  0.57548869  0.39578262    -0.39300
O3485       O  0.63715399  0.77079188  0.44013659    -0.40000
O3486       O  0.63754818  0.72835114  0.46602346    -0.40100
C3487       C  0.85235283  0.85444367  0.42681959    -0.12300
C3488       C  0.81174620  0.84030502  0.43758856     0.04700
C3489       C  0.78828265  0.86190511  0.43213902    -0.07600
C3490       C  0.79565886  0.88280173  0.41193122    -0.08400
C3491       C  0.83429145  0.89434002  0.40002533    -0.02900
C3492       C  0.86597347  0.88525385  0.40942218     0.03900
N3493       N  0.91229838  0.90968906  0.40325385     0.66400
H3494       H  0.87394735  0.84249715  0.43204809     0.15300
H3495       H  0.77197168  0.89140002  0.40614950     0.15000
N3496       N  0.76447132  0.87067343  0.44846928     0.74100
O3497       O  0.94128215  0.91424868  0.41697346    -0.39300
O3498       O  0.92516216  0.93351275  0.38628427    -0.39300
O3499       O  0.78598322  0.89739152  0.46360266    -0.40000
O3500       O  0.72424171  0.85897043  0.44568628    -0.40100
C3501       C  0.49298132  0.82275484  0.42365419    -0.12300
C3502       C  0.52589301  0.82293496  0.43685021     0.04700
C3503       C  0.57071439  0.85080699  0.43074053    -0.04600
C3504       C  0.58161306  0.87549506  0.41144064    -0.08400
C3505       C  0.54914845  0.87607796  0.39829643    -0.02900
C3506       C  0.50386495  0.84756448  0.40422682     0.03900
N3507       N  0.96671477  0.83629997  0.38842054     0.66400
H3508       H  0.95615562  0.79609790  0.42556072     0.15300
H3509       H  0.61616882  0.89522031  0.40694180     0.15000
N3510       N  0.60598547  0.85451464  0.44387364     0.74100
O3511       O  0.95225096  0.80260912  0.37636828    -0.39300
O3512       O  0.94111577  0.85059943  0.39282048    -0.39300
O3513       O  0.61427262  0.87383133  0.46199819    -0.40000
O3514       O  0.63188125  0.84280491  0.43632309    -0.40100
C3515       C  0.51566673  0.65456231  0.43739485    -0.12300
C3516       C  0.50960409  0.69085478  0.43366629     0.04700
C3517       C  0.51512702  0.70851174  0.41252387    -0.07600
C3518       C  0.52918295  0.69219224  0.39592831    -0.08400
C3519       C  0.53600685  0.65674475  0.39935453    -0.02900
C3520       C  0.52804915  0.63657515  0.42010162     0.03900
N3521       N  0.53312084  0.59893624  0.42373377     0.66400
H3522       H  0.51131349  0.64075304  0.45367007     0.15300
H3523       H  0.53520123  0.70779873  0.37997844     0.15000
N3524       N  0.50539988  0.74231561  0.40722977     0.74100
O3525       O  0.55508498  0.59805014  0.43986270    -0.39300
O3526       O  0.51646082  0.56683571  0.41057639    -0.39300
O3527       O  0.46528645  0.73244612  0.40719320    -0.40000
O3528       O  0.53344653  0.77546690  0.39627971    -0.40100
C3529       C  0.00074835  0.68509687  0.06639879    -0.12300
C3530       C  0.96987627  0.69900954  0.06263739     0.04700
C3531       C  0.94405171  0.69857967  0.08041132    -0.07600
C3532       C  0.95498673  0.69198146  0.10138984    -0.08400
C3533       C  0.97531735  0.66666290  0.10401858    -0.02900
C3534       C  0.00163722  0.66629650  0.08658067     0.03900
N3535       N  0.51698428  0.63151795  0.08561309     0.66400
H3536       H  0.51548861  0.67621395  0.05119421     0.15300
H3537       H  0.93764876  0.69588819  0.11506494     0.15000
N3538       N  0.90123310  0.69374599  0.07713031     0.74100
O3539       O  0.49602289  0.59292256  0.07776855    -0.39300
O3540       O  0.55778452  0.64875632  0.08991010    -0.39300
O3541       O  0.87520800  0.66547712  0.06352083    -0.40000
O3542       O  0.88510913  0.70709775  0.09157626    -0.40100
C3543       C  0.83466461  0.83466687  0.06319675    -0.12300
C3544       C  0.78955550  0.80062104  0.06327652     0.04700
C3545       C  0.76651918  0.79101752  0.08351426    -0.07600
C3546       C  0.79120721  0.80238992  0.10306531    -0.08400
C3547       C  0.83725705  0.83132437  0.10263948    -0.02900
C3548       C  0.85731960  0.85254681  0.08281476     0.03900
N3549       N  0.90053301  0.89163462  0.08249112     0.66400
H3550       H  0.85304961  0.84674693  0.04807799     0.15300
H3551       H  0.77466900  0.78928156  0.11855757     0.15000
N3552       N  0.71898847  0.77082635  0.08430979     0.74100
O3553       O  0.93237130  0.89179621  0.07271408    -0.39300
O3554       O  0.90463043  0.92797562  0.08845056    -0.39300
O3555       O  0.69777845  0.75199315  0.10153049    -0.40000
O3556       O  0.69913498  0.77809932  0.06911122    -0.40100
C3557       C  0.99481153  0.80212180  0.07047661    -0.12300
C3558       C  0.96154722  0.78012805  0.05464640     0.04700
C3559       C  0.92170674  0.78074443  0.05667772    -0.07600
C3560       C  0.91347584  0.79754673  0.07567030    -0.08400
C3561       C  0.94531192  0.81726528  0.09235865    -0.02900
C3562       C  0.98745971  0.82164932  0.08892799     0.03900
N3563       N  0.52298522  0.83851852  0.10466625     0.66400
H3564       H  0.52579869  0.79845149  0.06856764     0.15300
H3565       H  0.88098714  0.79353637  0.07753582     0.15000
N3566       N  0.88815337  0.76232905  0.04011900     0.74100
O3567       O  0.52857522  0.81482502  0.11835142    -0.39300
O3568       O  0.55360027  0.87813621  0.10161101    -0.39300
O3569       O  0.86880112  0.72158770  0.03563114    -0.40000
O3570       O  0.87666555  0.78671190  0.03042356    -0.40100
C3571       C  0.66465641  0.64585499  0.08639194    -0.12300
C3572       C  0.69525653  0.64912144  0.10214623     0.04700
C3573       C  0.74085719  0.67891792  0.09845200    -0.07600
C3574       C  0.75556305  0.70149109  0.07848967    -0.08400
C3575       C  0.72504626  0.69915302  0.06292795    -0.02900
C3576       C  0.67896647  0.67080184  0.06704493     0.03900
N3577       N  0.64619949  0.66680497  0.05174990     0.66400
H3578       H  0.62947134  0.62273472  0.08874492     0.15300
H3579       H  0.79089049  0.72338619  0.07574946     0.15000
N3580       N  0.77182186  0.69023336  0.11584025     0.74100
O3581       O  0.62008001  0.62961302  0.04331791    -0.39300
O3582       O  0.63795011  0.69775322  0.04983687    -0.39300
O3583       O  0.80800808  0.69138267  0.11273219    -0.40000
O3584       O  0.76641294  0.70670618  0.13299191    -0.40100
C3585       C  0.79883034  0.55257446  0.07667413    -0.12300
C3586       C  0.79902640  0.52295194  0.06137757     0.04700
C3587       C  0.82391174  0.50225824  0.06639748    -0.07600
C3588       C  0.84943925  0.51356933  0.08543510    -0.08400
C3589       C  0.84837702  0.54260936  0.10070322    -0.02900
C3590       C  0.81968008  0.55915556  0.09686923     0.03900
N3591       N  0.80927657  0.58055251  0.11367783     0.66400
H3592       H  0.78126640  0.56993646  0.07334627     0.15300
H3593       H  0.87244389  0.00232810  0.08715433     0.15000
N3594       N  0.82594639  0.97282551  0.05153740     0.74100
O3595       O  0.81391558  0.61813018  0.11018130    -0.39300
O3596       O  0.78911484  0.55914043  0.13060751    -0.39300
O3597       O  0.86196116  0.98230767  0.04219976    -0.40000
O3598       O  0.79589764  0.93264262  0.05346387    -0.40100
C3599       C  0.67537699  0.54714645  0.07862265    -0.12300
C3600       C  0.67435667  0.52396770  0.09736880     0.04700
C3601       C  0.68399630  0.48967920  0.09590454    -0.07600
C3602       C  0.69921135  0.48260513  0.07602158    -0.08400
C3603       C  0.70617495  0.51047348  0.05802849    -0.02900
C3604       C  0.69209823  0.54164186  0.05915788     0.03900
N3605       N  0.69939245  0.57160226  0.04158310     0.66400
H3606       H  0.66624148  0.57217982  0.07943577     0.15300
H3607       H  0.70850428  0.45750508  0.07503487     0.15000
N3608       N  0.68068939  0.46352460  0.11452974     0.74100
O3609       O  0.66656803  0.56750039  0.03098164    -0.39300
O3610       O  0.73635394  0.60723149  0.04004641    -0.39300
O3611       O  0.64386775  0.42938022  0.11898420    -0.40000
O3612       O  0.71563068  0.46824112  0.12311046    -0.40100
C3613       C  0.70160448  0.69478333  0.94290645    -0.12300
C3614       C  0.65546673  0.66815695  0.94583863     0.04700
C3615       C  0.63933117  0.64933730  0.96651291    -0.07600
C3616       C  0.66701086  0.66702631  0.98474111    -0.08400
C3617       C  0.71239184  0.69971422  0.98245884    -0.02900
C3618       C  0.73056119  0.70773039  0.96105010     0.03900
N3619       N  0.77747058  0.72694554  0.95768711     0.66400
H3620       H  0.71485663  0.70538075  0.92659919     0.15300
H3621       H  0.65196944  0.65630097  0.00069188     0.15000
N3622       N  0.59525016  0.61213714  0.96914960     0.74100
O3623       O  0.79984580  0.71943099  0.97134494    -0.39300
O3624       O  0.79530602  0.74551551  0.93980113    -0.39300
O3625       O  0.58748404  0.57430686  0.96338417    -0.40000
O3626       O  0.56790114  0.61483665  0.98152756    -0.40100
C3627       C  0.48454607  0.65802829  0.94557506    -0.12300
C3628       C  0.52970279  0.67042707  0.94812649     0.04700
C3629       C  0.54879398  0.68656588  0.96903332    -0.07600
C3630       C  0.52272957  0.68582190  0.98647487    -0.08400
C3631       C  0.48082755  0.68012667  0.98303948    -0.02900
C3632       C  0.46081785  0.66468975  0.96246280     0.03900
N3633       N  0.91616525  0.65254812  0.96100192     0.66400
H3634       H  0.96755291  0.64400952  0.93172928     0.15300
H3635       H  0.53916290  0.69964623  0.00190516     0.15000
N3636       N  0.59499953  0.71579458  0.97197942     0.74100
O3637       O  0.90648874  0.67366191  0.94756202    -0.39300
O3638       O  0.88565712  0.61699510  0.96932659    -0.39300
O3639       O  0.60884681  0.75587366  0.96736310    -0.40000
O3640       O  0.61356419  0.70795499  0.98757959    -0.40100
C3641       C  0.76837229  0.82610940  0.94781568    -0.12300
C3642       C  0.81359087  0.85346546  0.94363613     0.04700
C3643       C  0.84419132  0.85496470  0.95928209    -0.07600
C3644       C  0.82853579  0.82779206  0.97800198    -0.08400
C3645       C  0.78274218  0.80148383  0.98227858    -0.02900
C3646       C  0.75329272  0.80363017  0.96759455     0.03900
N3647       N  0.70754528  0.78355500  0.97245874     0.66400
H3648       H  0.74413056  0.82446618  0.93627057     0.15300
H3649       H  0.85218459  0.82852609  0.98965727     0.15000
N3650       N  0.89049174  0.88690175  0.95772190     0.74100
O3651       O  0.68084045  0.76097727  0.95766220    -0.39300
O3652       O  0.69510207  0.79935548  0.98749293    -0.39300
O3653       O  0.90632934  0.92207594  0.96872657    -0.40000
O3654       O  0.91645827  0.87589342  0.94945009    -0.40100
C3655       C  0.81714999  0.95326204  0.96457106    -0.12300
C3656       C  0.82496701  0.97702607  0.94512203     0.04700
C3657       C  0.81870055  0.01352450  0.94422081    -0.07600
C3658       C  0.80238216  0.52250166  0.96245327    -0.08400
C3659       C  0.79231308  0.99871074  0.98172498    -0.02900
C3660       C  0.79926549  0.96247479  0.98258406     0.03900
N3661       N  0.78494107  0.93244194  0.00077759     0.66400
H3662       H  0.82162361  0.92496291  0.96527628     0.15300
H3663       H  0.79616598  0.54963194  0.96186172     0.15000
N3664       N  0.82043773  0.53379981  0.92362007     0.74100
O3665       O  0.74433339  0.91154765  0.00602600    -0.39300
O3666       O  0.80991497  0.91896004  0.00787893    -0.39300
O3667       O  0.78531078  0.52433929  0.91346056    -0.40000
O3668       O  0.85641441  0.56838055  0.91852522    -0.40100
C3669       C  0.47707238  0.81876528  0.94962054    -0.12300
C3670       C  0.51152903  0.82127529  0.93688159     0.04700
C3671       C  0.52711263  0.79228490  0.94166985    -0.07600
C3672       C  0.51544859  0.76939066  0.96146797    -0.08400
C3673       C  0.48141003  0.76694571  0.97467874    -0.02900
C3674       C  0.46081412  0.79075353  0.96779358     0.03900
N3675       N  0.92649857  0.79401633  0.98109816     0.66400
H3676       H  0.46373401  0.83988532  0.94612972     0.15300
H3677       H  0.53427830  0.75466761  0.96646077     0.15000
N3678       N  0.55292907  0.78415958  0.92624615     0.74100
O3679       O  0.93322342  0.82997647  0.98922475    -0.39300
O3680       O  0.88724959  0.76193575  0.97947322    -0.39300
O3681       O  0.59016767  0.78947894  0.93162730    -0.40000
O3682       O  0.53422872  0.76244012  0.90924932    -0.40100
C3683       C  0.67024721  0.99579225  0.94635543    -0.12300
C3684       C  0.63883455  0.94999839  0.94604568     0.04700
C3685       C  0.63915288  0.92337393  0.96343957    -0.07600
C3686       C  0.67199086  0.94176087  0.97935462    -0.08400
C3687       C  0.70223050  0.98715708  0.97995103    -0.02900
C3688       C  0.70050957  0.01484756  0.96367641     0.03900
N3689       N  0.72708004  0.56165404  0.96530915     0.66400
H3690       H  0.67076367  0.51688916  0.93368023     0.15300
H3691       H  0.67147734  0.92083657  0.99257505     0.15000
N3692       N  0.60318949  0.87937670  0.96723335     0.74100
O3693       O  0.75117389  0.58435514  0.94948246    -0.39300
O3694       O  0.71709358  0.58055924  0.97983345    -0.39300
O3695       O  0.61162433  0.84874580  0.97019945    -0.40000
O3696       O  0.56722611  0.87449147  0.97457525    -0.40100
loop_ 
_geom_bond_atom_site_label_1 
_geom_bond_atom_site_label_2 
_geom_bond_distance 
_geom_bond_site_symmetry_2 
_ccdc_geom_bond_type 
C1            C2   1.536       .  S
C1            C7   1.521       .  S
C1            C5   1.541       .  S
C1          C337   1.520       .  S
C2            H9   1.085   1_455  S
C2            C3   1.376       .  D
C3            C4   1.550       .  S
C3          C898   1.484       .  S
C4            C8   1.522       .  S
C4            C6   1.540       .  S
C4           H10   1.101       .  S
C5           H11   1.085       .  S
C5            C6   1.376       .  D
C6          C912   1.500       .  S
C7           H12   1.068       .  S
C7            C8   1.355       .  D
C8           C53   1.476       .  S
C13          C14   1.536       .  S
C13          C19   1.523       .  S
C13          C17   1.536       .  S
C13         C332   1.496       .  S
C14          H21   1.086       .  S
C14          C15   1.365       .  D
C15          C16   1.538       .  S
C15         C884   1.458       .  S
C16          C20   1.530       .  S
C16          C18   1.547       .  S
C16          H22   1.109       .  S
C17          H23   1.083       .  S
C17          C18   1.365       .  D
C18         C870   1.489       .  S
C19          H24   1.072       .  S
C19          C20   1.354       .  D
C20          C38   1.478       .  S
C25          C26   1.536       .  S
C25          C31   1.513       .  S
C25          C29   1.546       .  S
C25         C336   1.524       .  S
C26          H33   1.086       .  S
C26          C27   1.366       .  D
C27          C28   1.564       .  S
C27         C842   1.489       .  S
C28          C32   1.558       .  S
C28          C30   1.561       .  S
C28          H34   1.096       .  S
C29          H35   1.086       .  S
C29          C30   1.380       .  D
C30         C856   1.525       .  S
C31          H36   1.128       .  S
C31          C32   1.346       .  D
C32          C42   1.503       .  S
O37          C52   1.263       .  A
O37         Al45   1.918       .  S
C38          O48   1.263       .  A
C38          O39   1.267       .  A
O39         Al41   1.928       .  S
O40          C42   1.266       .  A
O40         Al41   1.947       .  S
Al41         O49   1.926       .  S
Al41         O51   1.933       .  S
Al41         O50   1.779       .  S
C42          O55   1.270       .  A
O43          C53   1.263       .  A
O43         Al45   1.912       .  S
O44          C57   1.262       .  A
O44         Al54   1.906       .  S
Al45         O58   1.940       .  S
Al45         O55   1.947       .  S
Al45         O50   1.782       .  S
O46          C53   1.265       .  A
O46         Al54   1.931       .  S
O47          C56   1.264       .  A
O47         Al54   1.929       .  S
O48         Al54   1.918       .  S
O49          C56   1.266       .  A
O50         Al54   1.786       .  S
O51          C52   1.268       .  A
C52         C293   1.517       .  S
C56         C281   1.520       .  S
C57         C305   1.513       .  S
C57          O58   1.268       .  A
C59          C60   1.412   1_556  A
C59         C988   1.391   1_556  A
C59         C915   1.476       .  S
C60         C985   1.401       .  A
C60         C887   1.477   1_554  S
C61          C62   1.404       .  A
C61         C984   1.404       .  A
C61          H66   1.083       .  S
C62          C63   1.424       .  A
C62         C814   1.501       .  S
C63          C64   1.398   1_545  A
C63         C831   1.474       .  S
C64         C983   1.391       .  A
C64          H65   1.086       .  S
C67          C68   1.548       .  S
C67          C73   1.529       .  S
C67          C71   1.529       .  S
C67         C254   1.511       .  S
C68          H75   1.086       .  S
C68          C69   1.374       .  D
C69          C70   1.538       .  S
C69         C800   1.494       .  S
C70          C74   1.533       .  S
C70          C72   1.554       .  S
C70          H76   1.104       .  S
C71          H77   1.086   1_545  S
C71          C72   1.364       .  D
C72         C828   1.467       .  S
C73          H78   1.067       .  S
C73          C74   1.354       .  D
C74         C108   1.488       .  S
C79          C80   1.552       .  S
C79          C85   1.520       .  S
C79          C83   1.542       .  S
C79         C250   1.528       .  S
C80          H87   1.084       .  S
C80          C81   1.387       .  D
C81          C82   1.557       .  S
C81         C789   1.508       .  S
C82          C86   1.544       .  S
C82          C84   1.542       .  S
C82          H88   1.106       .  S
C83          H89   1.087       .  S
C83          C84   1.362       .  D
C84         C775   1.486       .  S
C85          H90   1.076       .  S
C85          C86   1.355       .  D
C86         C104   1.492       .  S
C91          C92   1.532       .  S
C91          C97   1.528       .  S
C91          C95   1.545       .  S
C91         C255   1.504       .  S
C92          H99   1.085   1_545  S
C92          C93   1.374       .  D
C93          C94   1.546       .  S
C93         C817   1.485       .  S
C94          C98   1.520       .  S
C94          C96   1.537       .  S
C94         H100   1.099       .  S
C95         H101   1.085       .  S
C95          C96   1.366       .  D
C96         C761   1.487       .  S
C97         H102   1.074       .  S
C97          C98   1.358       .  D
C98         C119   1.480       .  S
O103        C118   1.260       .  A
O103       Al111   1.897       .  S
C104        O114   1.259       .  A
C104        O105   1.262       .  A
O105       Al107   1.937       .  S
O106        C108   1.267       .  A
O106       Al107   1.933       .  S
Al107       O115   1.924       .  S
Al107       O117   1.918       .  S
Al107       O116   1.791       .  S
C108        O121   1.261       .  A
O109        C119   1.257       .  A
O109       Al111   1.897       .  S
O110        C123   1.257       .  A
O110       Al120   1.893       .  S
Al111       O124   1.916       .  S
Al111       O121   1.918       .  S
Al111       O116   1.795       .  S
O112        C119   1.273       .  A
O112       Al120   1.946       .  S
O113        C122   1.269       .  A
O113       Al120   1.945       .  S
O114       Al120   1.911       .  S
O115        C122   1.268       .  A
O116       Al120   1.792       .  S
O117        C118   1.259       .  A
C118        C199   1.507       .  S
C122        C211   1.532       .  S
C123        C223   1.508       .  S
C123        O124   1.265       .  A
C125        C126   1.430   1_554  A
C125       C1978   1.408       .  A
C125        C859   1.496   1_554  S
C126        C127   1.413   1_556  A
C126        C901   1.504       .  S
C127       C1976   1.402       .  A
C127        H132   1.082       .  S
C128        C129   1.418       .  A
C128       C1975   1.402       .  A
C128        C786   1.496       .  S
C129        C130   1.409       .  A
C129        C758   1.496       .  S
C130       C1973   1.407   1_554  A
C130        H131   1.084       .  S
C133        C134   1.431       .  A
C133        C138   1.408       .  A
C133        C873   1.492   1_554  S
C134        C135   1.409       .  A
C134        C845   1.519   1_554  S
C135        C136   1.408       .  A
C135        H140   1.083       .  S
C136        C137   1.431       .  A
C136        C803   1.495       .  S
C137        C138   1.410       .  A
C137        C772   1.517       .  S
C138        H139   1.083       .  S
C141        C142   1.541       .  S
C141        C145   1.538       .  S
C141       C1995   1.525       .  S
C141        C394   1.505       .  S
C142        H149   1.086       .  S
C142       C1991   1.371       .  D
C143        C144   1.545       .  S
C143       C1990   1.370   1_455  D
C143        C730   1.498       .  S
C144        C148   1.533       .  S
C144        C146   1.542       .  S
C144        H150   1.097       .  S
C145        H151   1.086       .  S
C145       C1994   1.365       .  D
C146       C1993   1.366   1_455  D
C146        C744   1.474       .  S
C147       C1989   1.526   1_455  S
C147        H152   1.073       .  S
C147        C148   1.356       .  D
C148        C182   1.478       .  S
C153        C154   1.538       .  S
C153        C159   1.526       .  S
C153        C157   1.547       .  S
C153        C395   1.512       .  S
C154        H161   1.086       .  S
C154        C155   1.362       .  D
C155        C156   1.546       .  S
C155        C702   1.504       .  S
C156        C160   1.532       .  S
C156        C158   1.552       .  S
C156        H162   1.091       .  S
C157        H163   1.084       .  S
C157        C158   1.384       .  D
C158        C716   1.501       .  S
C159        H164   1.073       .  S
C159        C160   1.354       .  D
C160        C193   1.485       .  S
C165        C166   1.537       .  S
C165        C169   1.538       .  S
C165       C1095   1.527       .  S
C165        C390   1.525       .  S
C166        H173   1.085       .  S
C166       C1091   1.387       .  D
C167        C168   1.568       .  S
C167       C1090   1.386       .  D
C167        C674   1.520       .  S
C168        C172   1.542       .  S
C168        C170   1.542       .  S
C168        H174   1.097       .  S
C169        H175   1.087       .  S
C169       C1094   1.360   1_545  D
C170       C1093   1.359       .  D
C170        C688   1.474       .  S
C171       C1089   1.529       .  S
C171        H176   1.075       .  S
C171        C172   1.358       .  D
C172        C178   1.497       .  S
O177        C192   1.266       .  A
O177       Al185   1.932       .  S
C178        O188   1.264       .  A
C178        O179   1.267       .  A
O179       Al181   1.940       .  S
O180        C182   1.263       .  A
O180       Al181   1.919       .  S
Al181       O189   1.922       .  S
Al181       O191   1.908       .  S
Al181       O190   1.782       .  S
C182        O195   1.259       .  A
O183        C193   1.268       .  A
O183       Al185   1.932       .  S
O184        C197   1.263       .  A
O184       Al194   1.921       .  S
Al185       O198   1.910       .  S
Al185       O195   1.913       .  S
Al185       O190   1.792       .  S
O186        C193   1.268       .  A
O186       Al194   1.927       .  S
O187        C196   1.270       .  A
O187       Al194   1.931       .  S
O188       Al194   1.935       .  S
O189        C196   1.264       .  A
O190       Al194   1.783       .  S
O191        C192   1.264       .  A
C192        C351   1.516       .  S
C196        C339   1.521       .  S
C197        C363   1.512       .  S
C197        O198   1.259       .  A
C199        C200   1.537       .  S
C199        C205   1.522       .  S
C199        C203   1.540       .  S
C200        H207   1.085       .  S
C200        C201   1.381       .  D
C201        C202   1.560       .  S
C201        C663   1.493       .  S
C202        C206   1.525       .  S
C202        C204   1.528       .  S
C202        H208   1.107       .  S
C203        H209   1.087       .  S
C203        C204   1.359       .  D
C204        C646   1.470       .  S
C205        H210   1.076       .  S
C205        C206   1.357       .  D
C206        C236   1.480       .  S
C211        C212   1.561       .  S
C211        C217   1.524       .  S
C211        C215   1.543       .  S
C212        H219   1.082       .  S
C212        C213   1.387       .  D
C213        C214   1.548       .  S
C213        C618   1.521       .  S
C214        C218   1.536       .  S
C214        C216   1.544       .  S
C214        H220   1.097       .  S
C215        H221   1.086       .  S
C215        C216   1.371       .  D
C216        C632   1.488       .  S
C217        H222   1.071       .  S
C217        C218   1.348       .  D
C218        C240   1.491       .  S
C223        C224   1.544       .  S
C223        C229   1.534       .  S
C223        C227   1.530       .  S
C224        H231   1.082       .  S
C224        C225   1.372       .  D
C225        C226   1.544       .  S
C225        C604   1.500       .  S
C226        C230   1.530       .  S
C226        C228   1.542       .  S
C226        H232   1.103       .  S
C227        H233   1.086       .  S
C227        C228   1.364       .  D
C228        C590   1.464       .  S
C229        H234   1.073       .  S
C229        C230   1.358       .  D
C230        C251   1.489       .  S
O235        C250   1.271       .  A
O235       Al243   1.932       .  S
C236        O246   1.260       .  A
C236        O237   1.269   1_545  A
O237      Al1163   1.936       .  S
O238       C2088   1.262       .  A
O238       Al239   1.918   1_655  S
Al239      O1161   1.932       .  S
Al239      O1171   1.905       .  S
Al239      O2097   1.928   1_455  S
Al239      O1172   1.793       .  S
C240        O253   1.262       .  A
C240       O2086   1.263       .  A
O241        C251   1.268       .  A
O241      Al1167   1.938   1_545  S
O242        C255   1.259       .  A
O242      Al2100   1.897       .  S
Al243       O253   1.935       .  S
Al243      O1165   1.940       .  S
Al243      O1180   1.921       .  S
Al243      O3020   1.787       .  S
O244        C251   1.264       .  A
O244      Al2100   1.920       .  S
O245        C254   1.266       .  A
O245       Al252   1.926       .  S
O246       Al252   1.904       .  S
O247        C254   1.260       .  A
O247      Al1163   1.899   1_545  S
O248       Al252   1.793   1_655  S
O248      Al1163   1.793   1_645  S
O248      Al3015   1.789   1_545  S
O249        C250   1.264       .  A
O249      Al2087   1.934       .  S
Al252      O2090   1.893   1_455  S
Al252      O2092   1.924       .  S
C255        O256   1.260       .  A
O256      Al1167   1.914   1_545  S
C257        C258   1.420       .  A
C257        C262   1.393       .  A
C257        C747   1.472       .  S
C258        C259   1.415       .  A
C258        C705   1.512       .  S
C259        C260   1.419       .  A
C259        H264   1.079       .  S
C260        C261   1.426       .  A
C260        C660   1.502       .  S
C261        C262   1.386       .  A
C261        C593   1.502       .  S
C262        H263   1.080       .  S
C265        C266   1.417       .  A
C265        C270   1.408       .  A
C265        C719   1.491       .  S
C266        C267   1.400       .  A
C266        C677   1.487       .  S
C267        C268   1.409       .  A
C267        H272   1.084       .  S
C268        C269   1.422       .  A
C268        C607   1.491       .  S
C269        C270   1.408       .  A
C269        C635   1.501       .  S
C270        H271   1.084       .  S
C273        C274   1.441       .  A
C273        C278   1.418       .  A
C273        C733   1.503       .  S
C274        C275   1.395       .  A
C274        C691   1.519       .  S
C275        C276   1.394       .  A
C275        H280   1.063       .  S
C276        C277   1.416       .  A
C276        C649   1.495       .  S
C277        C278   1.405       .  A
C277        C621   1.508       .  S
C278        H279   1.076       .  S
C281        C282   1.560       .  S
C281        C287   1.527       .  S
C281        C285   1.530       .  S
C282        H289   1.083       .  S
C282        C283   1.384       .  D
C283        C284   1.543       .  S
C283        C562   1.514       .  S
C284        C288   1.528       .  S
C284        C286   1.543       .  S
C284        H290   1.102       .  S
C285        H291   1.086       .  S
C285        C286   1.363       .  D
C286        C576   1.464       .  S
C287        H292   1.071       .  S
C287        C288   1.354       .  D
C288        C322   1.488       .  S
C293        C294   1.551       .  S
C293        C299   1.519       .  S
C293        C297   1.535       .  S
C294        H301   1.086       .  S
C294        C295   1.376       .  D
C295        C296   1.537       .  S
C295        C551   1.496       .  S
C296        C300   1.536       .  S
C296        C298   1.549       .  S
C296        H302   1.105       .  S
C297        H303   1.086       .  S
C297        C298   1.368       .  D
C298        C534   1.480       .  S
C299        H304   1.120       .  S
C299        C300   1.348       .  D
C300        C318   1.481       .  S
C305        C306   1.549       .  S
C305        C311   1.525       .  S
C305        C309   1.529       .  S
C306        H313   1.083       .  S
C306        C307   1.377       .  D
C307        C308   1.544       .  S
C307        C509   1.506       .  S
C308        C312   1.534       .  S
C308        C310   1.549       .  S
C308        H314   1.105       .  S
C309        H315   1.086       .  S
C309        C310   1.362       .  D
C310        C520   1.466       .  S
C311        H316   1.070       .  S
C311        C312   1.356       .  D
C312        C333   1.490       .  S
O317        C332   1.271       .  A
O317       Al325   1.940       .  S
C318        O328   1.276       .  A
C318        O319   1.258   1_455  A
O319      Al2169   1.899       .  S
O320       C1246   1.272       .  A
O320       Al321   1.957   1_565  S
Al321      O2167   1.896       .  S
Al321      O2177   1.956       .  S
Al321      O1255   1.876       .  S
Al321      O2178   1.781   1_545  S
C322        O335   1.262       .  A
C322       O1244   1.270       .  A
O323        C333   1.270       .  A
O323      Al2173   1.948   1_455  S
O324        C337   1.271       .  A
O324      Al1258   1.948       .  S
Al325       O335   1.918       .  S
Al325      O2171   1.953       .  S
Al325      O2186   1.905       .  S
Al325      O3102   1.780       .  S
O326        C333   1.262       .  A
O326      Al1258   1.915       .  S
O327        C336   1.260       .  A
O327       Al334   1.908       .  S
O328       Al334   1.964       .  S
O329        C336   1.271       .  A
O329      Al2169   1.958   1_455  S
O330       Al334   1.771   1_665  S
O330      Al2169   1.781   1_565  S
O330      Al3097   1.777       .  S
O331        C332   1.256       .  A
O331      Al1245   1.880       .  S
Al334      O1248   1.953   1_545  S
Al334      O1250   1.912       .  S
C337        O338   1.260   1_455  A
O338      Al2173   1.907       .  S
C339        C340   1.540       .  S
C339        C343   1.547       .  S
C339       C1269   1.524       .  S
C340        H347   1.086       .  S
C340       C1265   1.367       .  D
C341        C342   1.532       .  S
C341       C1264   1.369   1_545  D
C341        C478   1.489       .  S
C342        C346   1.515       .  S
C342        C344   1.545       .  S
C342        H348   1.106       .  S
C343        H349   1.085       .  S
C343       C1268   1.385       .  D
C344       C1267   1.384   1_545  D
C344        C492   1.489       .  S
C345       C1263   1.523   1_545  S
C345        H350   1.070       .  S
C345        C346   1.350       .  D
C346        C380   1.464       .  S
C351        C352   1.530       .  S
C351        C355   1.559       .  S
C351       C2205   1.520       .  S
C352        H359   1.086       .  S
C352       C2201   1.361       .  D
C353        C354   1.556       .  S
C353       C2200   1.373       .  D
C353        C450   1.480       .  S
C354        C358   1.540       .  S
C354        C356   1.543       .  S
C354        H360   1.109       .  S
C355        H361   1.083       .  S
C355       C2204   1.387   1_455  D
C356       C2203   1.360       .  D
C356        C467   1.484       .  S
C357       C2199   1.524       .  S
C357        H362   1.076       .  S
C357        C358   1.355       .  D
C358        C376   1.481       .  S
C363        C364   1.536       .  S
C363        C369   1.530       .  S
C363        C367   1.546       .  S
C364        H371   1.086       .  S
C364        C365   1.368       .  D
C365        C366   1.548       .  S
C365        C436   1.478       .  S
C366        C370   1.538       .  S
C366        C368   1.543       .  S
C366        H372   1.102       .  S
C367        H373   1.084       .  S
C367        C368   1.372       .  D
C368        C425   1.500       .  S
C369        H374   1.073       .  S
C369        C370   1.358       .  D
C370        C391   1.497       .  S
O375        C390   1.266       .  A
O375       Al383   1.917       .  S
C376        O386   1.262       .  A
C376        O377   1.263       .  A
O377       Al379   1.925       .  S
O378        C380   1.262       .  A
O378       Al379   1.899       .  S
Al379       O387   1.885       .  S
Al379       O389   1.929       .  S
Al379       O388   1.784       .  S
C380        O393   1.265       .  A
O381        C391   1.263       .  A
O381       Al383   1.921       .  S
O382        C395   1.260       .  A
O382       Al392   1.920       .  S
Al383       O396   1.912       .  S
Al383       O393   1.924       .  S
Al383       O388   1.777       .  S
O384        C391   1.272       .  A
O384       Al392   1.957       .  S
O385        C394   1.273       .  A
O385       Al392   1.948       .  S
O386       Al392   1.925       .  S
O387        C394   1.259       .  A
O388       Al392   1.786       .  S
O389        C390   1.263       .  A
C395        O396   1.266       .  A
C397        C398   1.417       .  A
C397        C402   1.404       .  A
C397        C579   1.470       .  S
C398        C399   1.396       .  A
C398        C506   1.494       .  S
C399        C400   1.403       .  A
C399        H404   1.085       .  S
C400        C401   1.414       .  A
C400        C453   1.461       .  S
C401        C402   1.397       .  A
C401        C422   1.497       .  S
C402        H403   1.084       .  S
C405        C406   1.419       .  A
C405        C410   1.401       .  A
C405        C548   1.501       .  S
C406        C407   1.402       .  A
C406        C523   1.477       .  S
C407        C408   1.403       .  A
C407        H412   1.082       .  S
C408        C409   1.425       .  A
C408        C495   1.509       .  S
C409        C410   1.408       .  A
C409        C439   1.479       .  S
C410        H411   1.084       .  S
C413        C414   1.423       .  A
C413        C418   1.405       .  A
C413        C537   1.495       .  S
C414        C415   1.410       .  A
C414        C565   1.509       .  S
C415        C416   1.410       .  A
C415        H420   1.084       .  S
C416        C417   1.421       .  A
C416        C481   1.473       .  S
C417        C418   1.400       .  A
C417        C464   1.518       .  S
C418        H419   1.079       .  S
C421        C422   1.404       .  A
C421        C426   1.403       .  A
C421        H428   1.084       .  S
C422        C423   1.416       .  A
C423        C424   1.399       .  A
C423        N430   1.433       .  S
C424        C425   1.404       .  A
C424        H429   1.081       .  S
C425        C426   1.417       .  A
C426        N427   1.428       .  S
N427        O431   1.262       .  A
N427        O432   1.261       .  A
N430        O434   1.263       .  A
N430        O433   1.261       .  A
C435        C436   1.401       .  A
C435        C440   1.394       .  A
C435        H442   1.080       .  S
C436        C437   1.408       .  A
C437        C438   1.404       .  A
C437        N444   1.428       .  S
C438        C439   1.406       .  A
C438        H443   1.084       .  S
C439        C440   1.412       .  A
C440        N441   1.435       .  S
N441        O445   1.262       .  A
N441        O446   1.262       .  A
N444        O448   1.261       .  A
N444        O447   1.261       .  A
C449        C450   1.398       .  A
C449        C454   1.382       .  A
C449        H456   1.065       .  S
C450        C451   1.414       .  A
C451        C452   1.405       .  A
C451       N2306   1.428       .  S
C452        C453   1.402       .  A
C452        H457   1.083       .  S
C453        C454   1.399       .  A
C454        N455   1.433       .  S
N455        O459   1.261       .  A
N455        O460   1.261       .  A
N458       C2299   1.428       .  S
N458        O462   1.262   1_655  A
N458        O461   1.262       .  A
C463        C464   1.413       .  A
C463        C468   1.406       .  A
C463        H470   1.071       .  S
C464        C465   1.424       .  A
C465        C466   1.400       .  A
C465        N472   1.434       .  S
C466        C467   1.394       .  A
C466        H471   1.083       .  S
C467        C468   1.402       .  A
C468        N469   1.428       .  S
N469       O2321   1.262       .  A
N469        O474   1.262       .  A
N472        O476   1.263       .  A
N472        O475   1.262       .  A
O473       N2317   1.262       .  A
C477        C478   1.409       .  A
C477        C482   1.388       .  A
C477        H484   1.080       .  S
C478        C479   1.419       .  A
C479        C480   1.410       .  A
C479        N486   1.443   1_545  S
C480        C481   1.404       .  A
C480        H485   1.084       .  S
C481        C482   1.398       .  A
C482        N483   1.430       .  S
N483        O487   1.262       .  A
N483        O488   1.262       .  A
N486        O490   1.263       .  A
N486        O489   1.263   1_565  A
C491        C492   1.396       .  A
C491        C496   1.400       .  A
C491       H1422   1.083   1_545  S
C492        C493   1.412       .  A
C493        C494   1.401       .  A
C493        N500   1.432       .  S
C494        C495   1.407       .  A
C494        H499   1.080       .  S
C495        C496   1.422       .  A
C496       N1421   1.426   1_545  S
N497       C1420   1.426       .  S
N497        O501   1.261       .  A
N497        O502   1.263       .  A
H498       C1415   1.083       .  S
N500        O504   1.262       .  A
N500        O503   1.262       .  A
C505        C510   1.405   1_655  A
C505       C2354   1.403       .  A
C505        H512   1.084       .  S
C506        C507   1.405       .  A
C506       C2353   1.403       .  A
C507        C508   1.401       .  A
C507        N514   1.427       .  S
C508       C2357   1.412       .  A
C508        H513   1.081       .  S
C509        C510   1.420       .  A
C509       C2356   1.409   1_455  A
C510        N511   1.428       .  S
N511        O515   1.262       .  A
N511        O516   1.262       .  A
N514        O518   1.261       .  A
N514        O517   1.259       .  A
C519        C520   1.392       .  A
C519        C524   1.387       .  A
C519        H526   1.082       .  S
C520       C1445   1.407       .  A
C521        C522   1.403       .  A
C521       C1444   1.407   1_545  A
C521        N528   1.428       .  S
C522        C523   1.405       .  A
C522        H527   1.084       .  S
C523       C1448   1.415   1_545  A
C524       C1447   1.415       .  A
C524        N525   1.431       .  S
N525        O529   1.263       .  A
N525        O530   1.262       .  A
N528        O532   1.262       .  A
N528        O531   1.262       .  A
C533        C538   1.403       .  A
C533       C2382   1.399       .  A
C533       H2388   1.084       .  S
C534        C535   1.409       .  A
C534       C2381   1.404   1_455  A
C535       C2384   1.392       .  A
C535        N542   1.427       .  S
C536        C537   1.404       .  A
C536       C2383   1.396       .  A
C536        H541   1.082       .  S
C537        C538   1.416       .  A
C538        N539   1.430       .  S
N539        O543   1.262       .  A
N539        O544   1.262       .  A
H540       C2381   1.084       .  S
N542        O546   1.262       .  A
N542        O545   1.262       .  A
C547        C548   1.403       .  A
C547        C552   1.395       .  A
C547        H554   1.079       .  S
C548        C549   1.419       .  A
C549        C550   1.406       .  A
C549        N556   1.430       .  S
C550        C551   1.404       .  A
C550        H555   1.083       .  S
C551        C552   1.412       .  A
C552        N553   1.428       .  S
N553        O557   1.262       .  A
N553        O558   1.260       .  A
N556        O560   1.262       .  A
N556        O559   1.262       .  A
C561        C566   1.405   1_565  A
C561       C1486   1.410       .  A
C561        H568   1.080       .  S
C562        C563   1.418       .  A
C562       C1485   1.409       .  A
C563        C564   1.409       .  A
C563        N570   1.427       .  S
C564       C1489   1.408       .  A
C564        H569   1.084       .  S
C565        C566   1.416       .  A
C565       C1488   1.410       .  A
C566        N567   1.440       .  S
N567        O571   1.262       .  A
N567        O572   1.263       .  A
N570        O574   1.262       .  A
N570        O573   1.262       .  A
C575        C576   1.400       .  A
C575        C580   1.390       .  A
C575        H582   1.082       .  S
C576        C577   1.404       .  A
C577        C578   1.397       .  A
C577        N584   1.427       .  S
C578        C579   1.403       .  A
C578        H583   1.084       .  S
C579        C580   1.410       .  A
C580        N581   1.432       .  S
N581        O585   1.262       .  A
N581        O586   1.262       .  A
N584        O588   1.262       .  A
N584        O587   1.262       .  A
C589        C590   1.394       .  A
C589        C594   1.390       .  A
C589        H596   1.083       .  S
C590       C2439   1.402       .  A
C591        C592   1.400       .  A
C591       C2438   1.403   1_455  A
C591        N598   1.428       .  S
C592        C593   1.411       .  A
C592        H597   1.083       .  S
C593       C2442   1.424   1_455  A
C594       C2441   1.423       .  A
C594        N595   1.432       .  S
N595        O599   1.263       .  A
N595        O600   1.260       .  A
N598        O602   1.261       .  A
N598        O601   1.262       .  A
C603        C608   1.396       .  A
C603       C1528   1.405       .  A
C603        H610   1.082       .  S
C604        C605   1.420       .  A
C604       C1527   1.406   1_545  A
C605        C606   1.401   1_545  A
C605        N612   1.427       .  S
C606       C1531   1.403       .  A
C606        H611   1.084       .  S
C607        C608   1.409       .  A
C607       C1530   1.402       .  A
C608        N609   1.427       .  S
N609        O613   1.257       .  A
N609        O614   1.259       .  A
N612        O616   1.262       .  A
N612        O615   1.261       .  A
C617        C622   1.401       .  A
C617       C2466   1.408   1_455  A
C617        H624   1.079   1_455  S
C618        C619   1.422       .  A
C618       C2465   1.408       .  A
C619       C2468   1.415       .  A
C619        N626   1.426       .  S
C620        C621   1.406       .  A
C620       C2467   1.414   1_455  A
C620        H625   1.083       .  S
C621        C622   1.412       .  A
C622        N623   1.435       .  S
N623        O627   1.261       .  A
N623        O628   1.262       .  A
N626        O630   1.262       .  A
N626        O629   1.262       .  A
C631        C632   1.404       .  A
C631        C636   1.403       .  A
C631        H638   1.082       .  S
C632        C633   1.405       .  A
C633        C634   1.406       .  A
C633        N640   1.427       .  S
C634        C635   1.409       .  A
C634        H639   1.083       .  S
C635        C636   1.415       .  A
C636        N637   1.430       .  S
N637        O641   1.261       .  A
N637        O642   1.261       .  A
N640        O644   1.261       .  A
N640        O643   1.262       .  A
C645        C646   1.396       .  A
C645        C650   1.391       .  A
C645        H652   1.078       .  S
C646       C1571   1.399   1_545  A
C647        C648   1.398       .  A
C647       C1570   1.399       .  A
C647        N654   1.427       .  S
C648        C649   1.412       .  A
C648        H653   1.083       .  S
C649       C1574   1.422       .  A
C650       C1573   1.423   1_545  A
C650        N651   1.438       .  S
N651        O655   1.262       .  A
N651        O656   1.261       .  A
N654        O658   1.262       .  A
N654        O657   1.261       .  A
C659        C660   1.407       .  A
C659        C664   1.395       .  A
C659        H666   1.082       .  S
C660        C661   1.418       .  A
C661        C662   1.404       .  A
C661        N668   1.429       .  S
C662        C663   1.406       .  A
C662        H667   1.082       .  S
C663        C664   1.409       .  A
C664        N665   1.436       .  S
N665        O669   1.262       .  A
N665        O670   1.261       .  A
N668        O672   1.262       .  A
N668        O671   1.262       .  A
C673        C674   1.415       .  A
C673        C678   1.407       .  A
C673        H680   1.083       .  S
C674        C675   1.428       .  A
C675        C676   1.401       .  A
C675        N682   1.424       .  S
C676        C677   1.391       .  A
C676        H681   1.085       .  S
C677        C678   1.403       .  A
C678        N679   1.427       .  S
N679        O683   1.261       .  A
N679        O684   1.262       .  A
N682        O686   1.253       .  A
N682        O685   1.259       .  A
C687        C688   1.390       .  A
C687        C692   1.389       .  A
C687       H1618   1.084       .  S
C688        C689   1.402       .  A
C689        C690   1.409       .  A
C689        N696   1.429       .  S
C690        C691   1.416       .  A
C690        H695   1.083       .  S
C691        C692   1.436       .  A
C692       N1617   1.435       .  S
N693       C1616   1.436       .  S
N693        O697   1.261       .  A
N693       O1622   1.261       .  A
H694       C1611   1.083       .  S
N696        O700   1.261       .  A
N696        O699   1.262       .  A
O698       N1617   1.260       .  A
C701        C702   1.409       .  A
C701        C706   1.412       .  A
C701        H708   1.082       .  S
C702        C703   1.407       .  A
C703        C704   1.398       .  A
C703        N710   1.430       .  S
C704        C705   1.406       .  A
C704        H709   1.077       .  S
C705        C706   1.417       .  A
C706        N707   1.428       .  S
N707        O711   1.261       .  A
N707        O712   1.262       .  A
N710        O714   1.262       .  A
N710        O713   1.258       .  A
C715        C716   1.406       .  A
C715        C720   1.414       .  A
C715        H722   1.081       .  S
C716        C717   1.408       .  A
C717        C718   1.391       .  A
C717        N724   1.433       .  S
C718        C719   1.401       .  A
C718        H723   1.075       .  S
C719        C720   1.422       .  A
C720        N721   1.443       .  S
N721        O725   1.263       .  A
N721        O726   1.261       .  A
N724        O728   1.260       .  A
N724        O727   1.262       .  A
C729        C730   1.405   1_655  A
C729        C734   1.404   1_655  A
C729       H2584   1.083       .  S
C730        C731   1.408       .  A
C731        C732   1.395       .  A
C731        N738   1.420       .  S
C732        C733   1.399       .  A
C732        H737   1.077       .  S
C733        C734   1.420       .  A
C734       N2583   1.428   1_455  S
N735       C2582   1.429       .  S
N735        O739   1.262       .  A
N735        O740   1.258       .  A
H736       C2577   1.083       .  S
N738        O742   1.257       .  A
N738        O741   1.258       .  A
C743        C744   1.412       .  A
C743        C748   1.411       .  A
C743        H750   1.083       .  S
C744        C745   1.405       .  A
C745        C746   1.375       .  A
C745        N752   1.426       .  S
C746        C747   1.394       .  A
C746        H751   1.085       .  S
C747        C748   1.407       .  A
C748        N749   1.431       .  S
N749        O753   1.262       .  A
N749        O754   1.262       .  A
N752        O756   1.263       .  A
N752        O755   1.261   1_455  A
C757        C758   1.411       .  A
C757        C762   1.404       .  A
C757       H2612   1.083       .  S
C758        C759   1.410       .  A
C759        C760   1.392       .  A
C759        N766   1.432       .  S
C760        C761   1.399       .  A
C760        H765   1.083       .  S
C761        C762   1.413       .  A
C762       N2611   1.428       .  S
N763       C2610   1.428       .  S
N763        O767   1.262       .  A
N763        O768   1.262       .  A
H764       C2605   1.084       .  S
N766        O770   1.262       .  A
N766        O769   1.262       .  A
C771        C772   1.413       .  A
C771        C776   1.402       .  A
C771        H778   1.081       .  S
C772        C773   1.421       .  A
C773        C774   1.411       .  A
C773        N780   1.436       .  S
C774        C775   1.399       .  A
C774        H779   1.083       .  S
C775        C776   1.407       .  A
C776        N777   1.431       .  S
N777        O781   1.261       .  A
N777        O782   1.262       .  A
N780        O784   1.262       .  A
N780        O783   1.263       .  A
C785        C786   1.409       .  A
C785        C790   1.414       .  A
C785       H2640   1.083       .  S
C786        C787   1.409       .  A
C787        C788   1.399       .  A
C787        N794   1.435       .  S
C788        C789   1.407       .  A
C788        H793   1.076       .  S
C789        C790   1.415       .  A
C790       N2639   1.427       .  S
N791       C2638   1.427   1_455  S
N791        O795   1.262       .  A
N791        O796   1.262       .  A
H792       C2633   1.083   1_455  S
N794        O798   1.261       .  A
N794        O797   1.261       .  A
C799        C800   1.401       .  A
C799        C804   1.402       .  A
C799        H806   1.084       .  S
C800        C801   1.411       .  A
C801        C802   1.403       .  A
C801        N808   1.426       .  S
C802        C803   1.402       .  A
C802        H807   1.084       .  S
C803        C804   1.419       .  A
C804        N805   1.429       .  S
N805        O809   1.262       .  A
N805        O810   1.261       .  A
N808        O812   1.261       .  A
N808        O811   1.260       .  A
C813        C814   1.405       .  A
C813        C818   1.395       .  A
C813        H820   1.080       .  S
C814        C815   1.422   1_545  A
C815        C816   1.398   1_565  A
C815       N1746   1.427       .  S
C816        C817   1.397       .  A
C816       H1745   1.083   1_545  S
C817        C818   1.408       .  A
C818        N819   1.428       .  S
N819        O823   1.260       .  A
N819        O824   1.261       .  A
H821       C1740   1.083       .  S
N822       C1739   1.427       .  S
N822        O826   1.261       .  A
N822        O825   1.263       .  A
C827        C828   1.393       .  A
C827        C832   1.382       .  A
C827        H834   1.076       .  S
C828        C829   1.408   1_545  A
C829        C830   1.404       .  A
C829        N836   1.429       .  S
C830        C831   1.407   1_565  A
C830        H835   1.084       .  S
C831        C832   1.409       .  A
C832        N833   1.430       .  S
N833        O837   1.262       .  A
N833        O838   1.262       .  A
N836        O840   1.261       .  A
N836        O839   1.261       .  A
C841        C842   1.404       .  A
C841        C846   1.417       .  A
C841        H848   1.083       .  S
C842        C843   1.404       .  A
C843        C844   1.400       .  A
C843        N850   1.432       .  S
C844        C845   1.412       .  A
C844        H849   1.080       .  S
C845        C846   1.422       .  A
C846        N847   1.436       .  S
N847        O851   1.262       .  A
N847        O852   1.263       .  A
N850        O854   1.261       .  A
N850        O853   1.262       .  A
C855        C856   1.416   1_655  A
C855        C860   1.417       .  A
C855       H2710   1.083       .  S
C856        C857   1.424       .  A
C857        C858   1.396       .  A
C857        N864   1.415       .  S
C858        C859   1.390   1_455  A
C858        H863   1.086   1_556  S
C859        C860   1.410       .  A
C860       N2709   1.427       .  S
N861       C2708   1.426       .  S
N861        O865   1.261       .  A
N861        O866   1.261       .  A
H862       C2703   1.083       .  S
N864        O868   1.261       .  A
N864        O867   1.262       .  A
C869        C870   1.390       .  A
C869        C874   1.391       .  A
C869        H876   1.083       .  S
C870        C871   1.419       .  A
C871        C872   1.409       .  A
C871        N878   1.427       .  S
C872        C873   1.405       .  A
C872        H877   1.083       .  S
C873        C874   1.397       .  A
C874        N875   1.412       .  S
N875        O879   1.255       .  A
N875        O880   1.262       .  A
N878        O882   1.260       .  A
N878        O881   1.262       .  A
C883        C884   1.394       .  A
C883        C888   1.388       .  A
C883        H890   1.082       .  S
C884        C885   1.401       .  A
C885       C1810   1.396       .  A
C885       N1816   1.427       .  S
C886       C1809   1.397       .  A
C886       C1811   1.404   1_545  A
C886        H891   1.077       .  S
C887        C888   1.415       .  A
C887       C1810   1.403       .  A
C888        N889   1.432   1_556  S
N889        O893   1.262       .  A
N889        O894   1.263       .  A
N892       C1809   1.428       .  S
N892        O896   1.262       .  A
N892        O895   1.262       .  A
C897        C898   1.400   1_655  A
C897        C902   1.398       .  A
C897        H904   1.078       .  S
C898        C899   1.405       .  A
C899        C900   1.393       .  A
C899        N906   1.433       .  S
C900        C901   1.406   1_455  A
C900        H905   1.067       .  S
C901        C902   1.417       .  A
C902       N2751   1.426       .  S
N903       C2750   1.428       .  S
N903        O907   1.263       .  A
N903        O908   1.260       .  A
N906        O910   1.262       .  A
N906        O909   1.261       .  A
C911        C912   1.409       .  A
C911        C916   1.405       .  A
C911       H1842   1.082       .  S
C912        C913   1.420       .  A
C913        C914   1.391       .  A
C913        N920   1.426       .  S
C914        C915   1.390       .  A
C914        H919   1.085       .  S
C915        C916   1.411       .  A
C916       N1841   1.431       .  S
N917       C1840   1.431       .  S
N917        O921   1.262       .  A
N917        O922   1.262       .  A
H918       C1835   1.082   1_545  S
N920        O924   1.261       .  A
N920        O923   1.262       .  A
C925        C926   1.536       .  S
C925        C931   1.521       .  S
C925        C929   1.540       .  S
C925       C1261   1.520       .  S
C926        H933   1.085   1_455  S
C926        C927   1.375       .  D
C927        C928   1.550       .  S
C927       C1822   1.484       .  S
C928        C932   1.525       .  S
C928        C930   1.542       .  S
C928        H934   1.102       .  S
C929        H935   1.085       .  S
C929        C930   1.376       .  D
C930       C1836   1.501       .  S
C931        H936   1.067       .  S
C931        C932   1.355       .  D
C932        C977   1.480       .  S
C937        C938   1.537       .  S
C937        C943   1.523       .  S
C937        C941   1.532       .  S
C937       C1256   1.496       .  S
C938        H945   1.086   1_565  S
C938        C939   1.366       .  D
C939        C940   1.541       .  S
C939       C1808   1.460       .  S
C940        C944   1.532       .  S
C940        C942   1.550       .  S
C940        H946   1.109       .  S
C941        H947   1.083       .  S
C941        C942   1.363       .  D
C942       C1794   1.490       .  S
C943        H948   1.071       .  S
C943        C944   1.355       .  D
C944        C962   1.481       .  S
C949        C950   1.535       .  S
C949        C955   1.521       .  S
C949        C953   1.547       .  S
C949       C1260   1.527       .  S
C950        H957   1.086       .  S
C950        C951   1.366       .  D
C951        C952   1.562       .  S
C951       C1766   1.487       .  S
C952        C956   1.557       .  S
C952        C954   1.562       .  S
C952        H958   1.096       .  S
C953        H959   1.085       .  S
C953        C954   1.381       .  D
C954       C1780   1.529       .  S
C955        H960   1.068       .  S
C955        C956   1.353       .  D
C956        C966   1.507       .  S
O961        C976   1.267       .  A
O961       Al969   1.926       .  S
C962        O972   1.263       .  A
C962        O963   1.265       .  A
O963       Al965   1.923       .  S
O964        C966   1.268       .  A
O964       Al965   1.951       .  S
Al965       O973   1.926       .  S
Al965       O975   1.924       .  S
Al965       O974   1.783       .  S
C966        O979   1.270       .  A
O967        C977   1.264       .  A
O967       Al969   1.917       .  S
O968        C981   1.262       .  A
O968       Al978   1.909       .  S
Al969       O982   1.950       .  S
Al969       O979   1.949       .  S
Al969       O974   1.784       .  S
O970        C977   1.267       .  A
O970       Al978   1.934       .  S
O971        C980   1.266       .  A
O971       Al978   1.934       .  S
O972       Al978   1.922       .  S
O973        C980   1.265       .  A
O974       Al978   1.787       .  S
O975        C976   1.266       .  A
C976       C1217   1.517       .  S
C980       C1205   1.523       .  S
C981       C1229   1.522       .  S
C981        O982   1.268       .  A
C983        C984   1.413   1_565  A
C983       C1839   1.478   1_554  S
C984       C1811   1.479   1_544  S
C985        C986   1.403       .  A
C985        H990   1.082       .  S
C986        C987   1.425       .  A
C986       C1738   1.497       .  S
C987        C988   1.398       .  A
C987       C1755   1.479       .  S
C988        H989   1.085       .  S
C991        C992   1.547       .  S
C991        C997   1.530       .  S
C991        C995   1.532       .  S
C991       C1178   1.514       .  S
C992        H999   1.086       .  S
C992        C993   1.372       .  D
C993        C994   1.538       .  S
C993       C1724   1.491       .  S
C994        C998   1.532       .  S
C994        C996   1.551       .  S
C994       H1000   1.106       .  S
C995       H1001   1.086       .  S
C995        C996   1.367       .  D
C996       C1752   1.469       .  S
C997       H1002   1.069       .  S
C997        C998   1.355       .  D
C998       C1032   1.486       .  S
C1003      C1004   1.554       .  S
C1003      C1009   1.517       .  S
C1003      C1007   1.541       .  S
C1003      C1174   1.525       .  S
C1004      H1011   1.084       .  S
C1004      C1005   1.389       .  D
C1005      C1006   1.557       .  S
C1005      C1713   1.511       .  S
C1006      C1010   1.547       .  S
C1006      C1008   1.542       .  S
C1006      H1012   1.103       .  S
C1007      H1013   1.087       .  S
C1007      C1008   1.360       .  D
C1008      C1699   1.486       .  S
C1009      H1014   1.076       .  S
C1009      C1010   1.353       .  D
C1010      C1028   1.492       .  S
C1015      C1016   1.530       .  S
C1015      C1021   1.527       .  S
C1015      C1019   1.549       .  S
C1015      C1179   1.507       .  S
C1016      H1023   1.085       .  S
C1016      C1017   1.375       .  D
C1017      C1018   1.544       .  S
C1017      C1741   1.484       .  S
C1018      C1022   1.517       .  S
C1018      C1020   1.537       .  S
C1018      H1024   1.098       .  S
C1019      H1025   1.085       .  S
C1019      C1020   1.369       .  D
C1020      C1685   1.491       .  S
C1021      H1026   1.074       .  S
C1021      C1022   1.357       .  D
C1022      C1043   1.477       .  S
O1027      C1042   1.260       .  A
O1027     Al1035   1.896       .  S
C1028      O1038   1.260       .  A
C1028      O1029   1.262       .  A
O1029     Al1031   1.937       .  S
O1030      C1032   1.266       .  A
O1030     Al1031   1.929       .  S
Al1031     O1039   1.922       .  S
Al1031     O1041   1.919       .  S
Al1031     O1040   1.791       .  S
C1032      O1045   1.262       .  A
O1033      C1043   1.258       .  A
O1033     Al1035   1.899       .  S
O1034      C1047   1.258       .  A
O1034     Al1044   1.898       .  S
Al1035     O1048   1.916       .  S
Al1035     O1045   1.919       .  S
Al1035     O1040   1.793       .  S
O1036      C1043   1.271       .  A
O1036     Al1044   1.938       .  S
O1037      C1046   1.268       .  A
O1037     Al1044   1.937       .  S
O1038     Al1044   1.913       .  S
O1039      C1046   1.267       .  A
O1040     Al1044   1.791       .  S
O1041      C1042   1.259       .  A
C1042      C1123   1.507       .  S
C1046      C1135   1.526       .  S
C1047      C1147   1.510       .  S
C1047      O1048   1.265       .  A
C1049      C1050   1.434   1_554  A
C1049      C2902   1.409       .  A
C1049      C1783   1.498   1_554  S
C1050      C1051   1.415   1_556  A
C1050      C1825   1.512       .  S
C1051      C2900   1.402       .  A
C1051      H1056   1.081       .  S
C1052      C2899   1.402       .  A
C1052      C1053   1.420       .  A
C1052      C1710   1.497       .  S
C1053      C1054   1.411       .  A
C1053      C1682   1.499       .  S
C1054      C2897   1.409   1_554  A
C1054      H1055   1.084       .  S
C1057      C1058   1.430       .  A
C1057      C1062   1.408       .  A
C1057      C1797   1.492   1_554  S
C1058      C1059   1.409       .  A
C1058      C1769   1.518   1_554  S
C1059      C1060   1.409       .  A
C1059      H1064   1.083       .  S
C1060      C1061   1.431       .  A
C1060      C1727   1.496       .  S
C1061      C1062   1.409       .  A
C1061      C1696   1.515       .  S
C1062      H1063   1.084       .  S
C1065      C1066   1.542       .  S
C1065      C2919   1.525       .  S
C1065      C1069   1.536       .  S
C1065      C1318   1.506       .  S
C1066      H1073   1.086       .  S
C1066      C2915   1.372       .  D
C1067      C1068   1.544       .  S
C1067      C2914   1.370   1_455  D
C1067      C1654   1.495       .  S
C1068      C1072   1.531       .  S
C1068      C1070   1.542       .  S
C1068      H1074   1.102       .  S
C1069      H1075   1.086       .  S
C1069      C2918   1.363       .  D
C1070      C2917   1.368   1_455  D
C1070      C1668   1.476       .  S
C1071      C2913   1.526   1_455  S
C1071      H1076   1.072       .  S
C1071      C1072   1.356       .  D
C1072      C1106   1.476       .  S
C1077      C1078   1.540       .  S
C1077      C1083   1.526       .  S
C1077      C1081   1.549       .  S
C1077      C1319   1.517       .  S
C1078      H1085   1.085       .  S
C1078      C1079   1.367       .  D
C1079      C1080   1.545       .  S
C1079      C1626   1.510       .  S
C1080      C1084   1.530       .  S
C1080      C1082   1.549       .  S
C1080      H1086   1.091       .  S
C1081      H1087   1.084       .  S
C1081      C1082   1.383       .  D
C1082      C1640   1.500       .  S
C1083      H1088   1.073       .  S
C1083      C1084   1.354       .  D
C1084      C1117   1.481       .  S
C1089      C1090   1.538       .  S
C1089      C1093   1.538       .  S
C1089      C1314   1.526       .  S
C1090      H1097   1.085       .  S
C1091      C1092   1.567   1_545  S
C1091      C1598   1.520   1_545  S
C1092      C1096   1.543       .  S
C1092      C1094   1.544       .  S
C1092      H1098   1.098       .  S
C1093      H1099   1.087       .  S
C1094      C1612   1.476       .  S
C1095      H1100   1.076       .  S
C1095      C1096   1.357   1_545  D
C1096      C1102   1.496       .  S
O1101      C1116   1.266       .  A
O1101     Al1109   1.916       .  S
C1102      O1112   1.266       .  A
C1102      O1103   1.266       .  A
O1103     Al1105   1.937       .  S
O1104      C1106   1.262       .  A
O1104     Al1105   1.916       .  S
Al1105     O1113   1.920       .  S
Al1105     O1115   1.916       .  S
Al1105     O1114   1.787       .  S
C1106      O1119   1.259       .  A
O1107      C1117   1.265       .  A
O1107     Al1109   1.924       .  S
O1108      C1121   1.265       .  A
O1108     Al1118   1.925       .  S
Al1109     O1122   1.917       .  S
Al1109     O1119   1.914       .  S
Al1109     O1114   1.788       .  S
O1110      C1117   1.266       .  A
O1110     Al1118   1.925       .  S
O1111      C1120   1.268       .  A
O1111     Al1118   1.927       .  S
O1112     Al1118   1.939       .  S
O1113      C1120   1.264       .  A
O1114     Al1118   1.781       .  S
O1115      C1116   1.263       .  A
C1116      C1275   1.511       .  S
C1120      C1263   1.519       .  S
C1121      C1287   1.517       .  S
C1121      O1122   1.260       .  A
C1123      C1124   1.537       .  S
C1123      C1129   1.522       .  S
C1123      C1127   1.541       .  S
C1124      H1131   1.085       .  S
C1124      C1125   1.381       .  D
C1125      C1126   1.559       .  S
C1125      C1587   1.492       .  S
C1126      C1130   1.525       .  S
C1126      C1128   1.529       .  S
C1126      H1132   1.107       .  S
C1127      H1133   1.087       .  S
C1127      C1128   1.360       .  D
C1128      C1570   1.471       .  S
C1129      H1134   1.076       .  S
C1129      C1130   1.357       .  D
C1130      C1160   1.479       .  S
C1135      C1136   1.559       .  S
C1135      C1141   1.523       .  S
C1135      C1139   1.542       .  S
C1136      H1143   1.082       .  S
C1136      C1137   1.386       .  D
C1137      C1138   1.549       .  S
C1137      C1542   1.520       .  S
C1138      C1142   1.536       .  S
C1138      C1140   1.546       .  S
C1138      H1144   1.096       .  S
C1139      H1145   1.086       .  S
C1139      C1140   1.369       .  D
C1140      C1556   1.488       .  S
C1141      H1146   1.071       .  S
C1141      C1142   1.348       .  D
C1142      C1164   1.490       .  S
C1147      C1148   1.545       .  S
C1147      C1153   1.534       .  S
C1147      C1151   1.531       .  S
C1148      H1155   1.082       .  S
C1148      C1149   1.372       .  D
C1149      C1150   1.545       .  S
C1149      C1528   1.502       .  S
C1150      C1154   1.530       .  S
C1150      C1152   1.542       .  S
C1150      H1156   1.102       .  S
C1151      H1157   1.086       .  S
C1151      C1152   1.365       .  D
C1152      C1514   1.466       .  S
C1153      H1158   1.073       .  S
C1153      C1154   1.358       .  D
C1154      C1175   1.491       .  S
O1159      C1174   1.271       .  A
O1159     Al1167   1.930       .  S
C1160      O1170   1.261       .  A
C1160      O1161   1.268       .  A
O1162      C3012   1.261       .  A
O1162     Al1163   1.914   1_655  S
Al1163     O3021   1.933   1_455  S
C1164      O3010   1.264       .  A
C1164      O1177   1.261       .  A
O1165      C1175   1.269       .  A
O1166      C1179   1.258       .  A
O1166     Al3024   1.894       .  S
Al1167     O1177   1.931       .  S
Al1167     O2096   1.786   1_565  S
O1168      C1175   1.264       .  A
O1168     Al3024   1.922       .  S
O1169      C1178   1.267       .  A
O1169     Al1176   1.926       .  S
O1170     Al1176   1.906       .  S
O1171      C1178   1.260       .  A
O1172     Al2091   1.789   1_455  S
O1172     Al1176   1.791       .  S
O1173      C1174   1.264       .  A
O1173     Al3011   1.933       .  S
Al1176     O3014   1.899   1_455  S
Al1176     O3016   1.927       .  S
C1179      O1180   1.261       .  A
C1181      C1182   1.418       .  A
C1181      C1186   1.393       .  A
C1181      C1671   1.472       .  S
C1182      C1183   1.413       .  A
C1182      C1629   1.508       .  S
C1183      C1184   1.418       .  A
C1183      H1188   1.079       .  S
C1184      C1185   1.426       .  A
C1184      C1584   1.499       .  S
C1185      C1186   1.386       .  A
C1185      C1517   1.502       .  S
C1186      H1187   1.079       .  S
C1189      C1190   1.417       .  A
C1189      C1194   1.408       .  A
C1189      C1643   1.493       .  S
C1190      C1191   1.399       .  A
C1190      C1601   1.485       .  S
C1191      C1192   1.409       .  A
C1191      H1196   1.084       .  S
C1192      C1193   1.423       .  A
C1192      C1531   1.491       .  S
C1193      C1194   1.409       .  A
C1193      C1559   1.502       .  S
C1194      H1195   1.084       .  S
C1197      C1198   1.441       .  A
C1197      C1202   1.422       .  A
C1197      C1657   1.511       .  S
C1198      C1199   1.394       .  A
C1198      C1615   1.514       .  S
C1199      C1200   1.392       .  A
C1199      H1204   1.064   1_565  S
C1200      C1201   1.417       .  A
C1200      C1573   1.495       .  S
C1201      C1202   1.409       .  A
C1201      C1545   1.512       .  S
C1202      H1203   1.075       .  S
C1205      C1206   1.561       .  S
C1205      C1211   1.525       .  S
C1205      C1209   1.533       .  S
C1206      H1213   1.084       .  S
C1206      C1207   1.385       .  D
C1207      C1208   1.544       .  S
C1207      C1486   1.516       .  S
C1208      C1212   1.530       .  S
C1208      C1210   1.544       .  S
C1208      H1214   1.101       .  S
C1209      H1215   1.086       .  S
C1209      C1210   1.365       .  D
C1210      C1500   1.469       .  S
C1211      H1216   1.071       .  S
C1211      C1212   1.352       .  D
C1212      C1246   1.489       .  S
C1217      C1218   1.558       .  S
C1217      C1223   1.527       .  S
C1217      C1221   1.532       .  S
C1218      H1225   1.085       .  S
C1218      C1219   1.379       .  D
C1219      C1220   1.536       .  S
C1219      C1475   1.502       .  S
C1220      C1224   1.530       .  S
C1220      C1222   1.544       .  S
C1220      H1226   1.105       .  S
C1221      H1227   1.086       .  S
C1221      C1222   1.365       .  D
C1222      C1458   1.469       .  S
C1223      H1228   1.072       .  S
C1223      C1224   1.354       .  D
C1224      C1242   1.479       .  S
C1229      C1230   1.552       .  S
C1229      C1235   1.527       .  S
C1229      C1233   1.530       .  S
C1230      H1237   1.081       .  S
C1230      C1231   1.383       .  D
C1231      C1232   1.545       .  S
C1231      C1433   1.514       .  S
C1232      C1236   1.531       .  S
C1232      C1234   1.547       .  S
C1232      H1238   1.104       .  S
C1233      H1239   1.086       .  S
C1233      C1234   1.361       .  D
C1234      C1444   1.467       .  S
C1235      H1240   1.070       .  S
C1235      C1236   1.358       .  D
C1236      C1257   1.490       .  S
O1241      C1256   1.272       .  A
O1241     Al1249   1.944       .  S
C1242      O1252   1.274       .  A
C1242      O1243   1.260   1_455  A
O1243     Al3093   1.900       .  S
O1244     Al1245   1.953       .  S
Al1245     O3091   1.905       .  S
Al1245     O3101   1.952       .  S
Al1245     O3102   1.782       .  S
C1246      O1259   1.262       .  A
O1247      C1257   1.271       .  A
O1247     Al3097   1.952   1_455  S
O1248      C1261   1.272       .  A
Al1249     O3095   1.953       .  S
Al1249     O3110   1.908       .  S
Al1249     O1259   1.918       .  S
Al1249     O2178   1.779       .  S
O1250      C1257   1.261   1_545  A
O1251      C1260   1.263       .  A
O1251     Al1258   1.916       .  S
O1252     Al1258   1.957       .  S
O1253      C1260   1.270       .  A
O1253     Al3093   1.956   1_455  S
O1254     Al3093   1.782   1_455  S
O1254     Al2173   1.780   1_455  S
O1254     Al1258   1.773       .  S
O1255      C1256   1.255   1_545  A
C1261      O1262   1.260   1_455  A
O1262     Al3097   1.904       .  S
C1263      C1264   1.542       .  S
C1263      C1267   1.546       .  S
C1264      H1271   1.086       .  S
C1265      C1266   1.531       .  S
C1265      C1402   1.485       .  S
C1266      C1270   1.518       .  S
C1266      C1268   1.545       .  S
C1266      H1272   1.107       .  S
C1267      H1273   1.085       .  S
C1268      C1416   1.491       .  S
C1269      H1274   1.070       .  S
C1269      C1270   1.352       .  D
C1270      C1304   1.468       .  S
C1275      C1276   1.535       .  S
C1275      C3129   1.524       .  S
C1275      C1279   1.544       .  S
C1276      H1283   1.085       .  S
C1276      C3125   1.374       .  D
C1277      C1278   1.554       .  S
C1277      C3124   1.376       .  D
C1277      C1374   1.484       .  S
C1278      C1282   1.538       .  S
C1278      C1280   1.545       .  S
C1278      H1284   1.110       .  S
C1279      H1285   1.086       .  S
C1279      C3128   1.363   1_455  D
C1280      C3127   1.362       .  D
C1280      C1391   1.487       .  S
C1281      C3123   1.525       .  S
C1281      H1286   1.075       .  S
C1281      C1282   1.357       .  D
C1282      C1300   1.482       .  S
C1287      C1288   1.540       .  S
C1287      C1293   1.531       .  S
C1287      C1291   1.547       .  S
C1288      H1295   1.086       .  S
C1288      C1289   1.371       .  D
C1289      C1290   1.548       .  S
C1289      C1360   1.487       .  S
C1290      C1294   1.540       .  S
C1290      C1292   1.540       .  S
C1290      H1296   1.103       .  S
C1291      H1297   1.085       .  S
C1291      C1292   1.370       .  D
C1292      C1349   1.497       .  S
C1293      H1298   1.074       .  S
C1293      C1294   1.359       .  D
C1294      C1315   1.499       .  S
O1299      C1314   1.266       .  A
O1299     Al1307   1.918       .  S
C1300      O1310   1.262       .  A
C1300      O1301   1.262       .  A
O1301     Al1303   1.922       .  S
O1302      C1304   1.263       .  A
O1302     Al1303   1.905       .  S
Al1303     O1311   1.887       .  S
Al1303     O1313   1.928       .  S
Al1303     O1312   1.786       .  S
C1304      O1317   1.267       .  A
O1305      C1315   1.262       .  A
O1305     Al1307   1.921       .  S
O1306      C1319   1.260       .  A
O1306     Al1316   1.922       .  S
Al1307     O1320   1.918       .  S
Al1307     O1317   1.927       .  S
Al1307     O1312   1.778       .  S
O1308      C1315   1.272       .  A
O1308     Al1316   1.958       .  S
O1309      C1318   1.273       .  A
O1309     Al1316   1.949       .  S
O1310     Al1316   1.928       .  S
O1311      C1318   1.260       .  A
O1312     Al1316   1.787       .  S
O1313      C1314   1.262       .  A
C1319      O1320   1.266       .  A
C1321      C1322   1.418       .  A
C1321      C1326   1.405       .  A
C1321      C1503   1.475       .  S
C1322      C1323   1.398       .  A
C1322      C1430   1.494       .  S
C1323      C1324   1.404       .  A
C1323      H1328   1.085       .  S
C1324      C1325   1.415       .  A
C1324      C1377   1.465       .  S
C1325      C1326   1.398       .  A
C1325      C1346   1.497       .  S
C1326      H1327   1.083       .  S
C1329      C1330   1.420       .  A
C1329      C1334   1.404       .  A
C1329      C1472   1.504       .  S
C1330      C1331   1.403       .  A
C1330      C1447   1.480       .  S
C1331      C1332   1.404       .  A
C1331      H1336   1.083       .  S
C1332      C1333   1.426       .  A
C1332      C1419   1.510       .  S
C1333      C1334   1.411       .  A
C1333      C1363   1.486       .  S
C1334      H1335   1.084       .  S
C1337      C1338   1.419       .  A
C1337      C1342   1.403       .  A
C1337      C1461   1.488       .  S
C1338      C1339   1.410       .  A
C1338      C1489   1.507       .  S
C1339      C1340   1.411       .  A
C1339      H1344   1.084       .  S
C1340      C1341   1.423       .  A
C1340      C1405   1.474       .  S
C1341      C1342   1.400       .  A
C1341      C1388   1.519       .  S
C1342      H1343   1.081       .  S
C1345      C1346   1.404       .  A
C1345      C1350   1.403       .  A
C1345      H1352   1.084       .  S
C1346      C1347   1.416       .  A
C1347      C1348   1.399       .  A
C1347      N1354   1.435       .  S
C1348      C1349   1.403       .  A
C1348      H1353   1.082       .  S
C1349      C1350   1.417       .  A
C1350      N1351   1.429       .  S
N1351      O1355   1.262       .  A
N1351      O1356   1.261       .  A
N1354      O1358   1.263       .  A
N1354      O1357   1.261       .  A
C1359      C1360   1.403       .  A
C1359      C1364   1.397       .  A
C1359      H1366   1.080       .  S
C1360      C1361   1.409       .  A
C1361      C1362   1.406       .  A
C1361      N1368   1.427       .  S
C1362      C1363   1.406       .  A
C1362      H1367   1.084       .  S
C1363      C1364   1.411       .  A
C1364      N1365   1.433       .  S
N1365      O1369   1.262       .  A
N1365      O1370   1.262       .  A
N1368      O1372   1.262       .  A
N1368      O1371   1.262       .  A
C1373      C1374   1.397       .  A
C1373      C1378   1.382       .  A
C1373      H1380   1.064       .  S
C1374      C1375   1.414       .  A
C1375      C1376   1.407       .  A
C1375      N3230   1.427       .  S
C1376      C1377   1.403       .  A
C1376      H1381   1.083       .  S
C1377      C1378   1.399       .  A
C1378      N1379   1.433       .  S
N1379      O1383   1.261       .  A
N1379      O1384   1.261       .  A
N1382      C3223   1.428   1_455  S
N1382      O1386   1.262       .  A
N1382      O1385   1.261   1_455  A
C1387      C1388   1.413       .  A
C1387      C1392   1.409       .  A
C1387      H1394   1.071       .  S
C1388      C1389   1.423       .  A
C1389      C1390   1.399       .  A
C1389      N1396   1.433       .  S
C1390      C1391   1.392       .  A
C1390      H1395   1.083       .  S
C1391      C1392   1.404       .  A
C1392      N1393   1.427       .  S
N1393      O3245   1.262       .  A
N1393      O1398   1.262       .  A
N1396      O1400   1.263       .  A
N1396      O1399   1.262       .  A
O1397      N3241   1.262       .  A
C1401      C1402   1.408       .  A
C1401      C1406   1.389       .  A
C1401      H1408   1.081       .  S
C1402      C1403   1.418       .  A
C1403      C1404   1.409       .  A
C1403      N1410   1.443       .  S
C1404      C1405   1.403       .  A
C1404      H1409   1.084       .  S
C1405      C1406   1.400       .  A
C1406      N1407   1.430       .  S
N1407      O1411   1.262       .  A
N1407      O1412   1.262       .  A
N1410      O1414   1.263       .  A
N1410      O1413   1.263       .  A
C1415      C1416   1.396       .  A
C1415      C1420   1.401       .  A
C1416      C1417   1.412       .  A
C1417      C1418   1.401       .  A
C1417      N1424   1.432       .  S
C1418      C1419   1.407       .  A
C1418      H1423   1.080       .  S
C1419      C1420   1.423       .  A
N1421      O1425   1.261       .  A
N1421      O1426   1.263       .  A
N1424      O1428   1.262       .  A
N1424      O1427   1.262       .  A
C1429      C3278   1.402       .  A
C1429      C1434   1.404   1_655  A
C1429      H1436   1.083       .  S
C1430      C3277   1.403       .  A
C1430      C1431   1.404       .  A
C1431      C1432   1.399       .  A
C1431      N1438   1.426       .  S
C1432      C3281   1.410       .  A
C1432      H1437   1.081       .  S
C1433      C3280   1.414   1_455  A
C1433      C1434   1.420       .  A
C1434      N1435   1.426       .  S
N1435      O1439   1.262   1_455  A
N1435      O1440   1.262       .  A
N1438      O1442   1.261       .  A
N1438      O1441   1.259       .  A
C1443      C1444   1.393       .  A
C1443      C1448   1.388       .  A
C1443      H1450   1.083       .  S
C1445      C1446   1.403       .  A
C1445      N1452   1.428       .  S
C1446      C1447   1.407       .  A
C1446      H1451   1.084       .  S
C1448      N1449   1.432       .  S
N1449      O1453   1.263       .  A
N1449      O1454   1.262       .  A
N1452      O1456   1.262       .  A
N1452      O1455   1.262       .  A
C1457      C3306   1.400       .  A
C1457      C1462   1.404       .  A
C1457      H3312   1.084       .  S
C1458      C3305   1.399   1_455  A
C1458      C1459   1.406       .  A
C1459      C3308   1.391       .  A
C1459      N1466   1.433       .  S
C1460      C3307   1.390       .  A
C1460      C1461   1.399       .  A
C1460      H1465   1.083       .  S
C1461      C1462   1.415       .  A
C1462      N1463   1.429       .  S
N1463      O1467   1.262       .  A
N1463      O1468   1.262       .  A
H1464      C3305   1.084       .  S
N1466      O1470   1.262       .  A
N1466      O1469   1.262       .  A
C1471      C1472   1.402       .  A
C1471      C1476   1.395       .  A
C1471      H1478   1.080       .  S
C1472      C1473   1.420       .  A
C1473      C1474   1.410       .  A
C1473      N1480   1.429       .  S
C1474      C1475   1.405       .  A
C1474      H1479   1.082       .  S
C1475      C1476   1.412       .  A
C1476      N1477   1.428       .  S
N1477      O1481   1.262       .  A
N1477      O1482   1.260       .  A
N1480      O1484   1.262       .  A
N1480      O1483   1.262       .  A
C1485      C1490   1.405       .  A
C1485      H1492   1.080       .  S
C1486      C1487   1.419       .  A
C1487      C1488   1.411   1_565  A
C1487      N1494   1.428       .  S
C1488      H1493   1.083       .  S
C1489      C1490   1.418       .  A
C1490      N1491   1.440       .  S
N1491      O1495   1.263       .  A
N1491      O1496   1.263       .  A
N1494      O1498   1.262       .  A
N1494      O1497   1.262       .  A
C1499      C1500   1.400       .  A
C1499      C1504   1.392       .  A
C1499      H1506   1.080       .  S
C1500      C1501   1.404       .  A
C1501      C1502   1.399       .  A
C1501      N1508   1.427       .  S
C1502      C1503   1.405       .  A
C1502      H1507   1.083       .  S
C1503      C1504   1.410       .  A
C1504      N1505   1.433       .  S
N1505      O1509   1.262       .  A
N1505      O1510   1.262       .  A
N1508      O1512   1.262       .  A
N1508      O1511   1.262       .  A
C1513      C1514   1.395       .  A
C1513      C1518   1.391       .  A
C1513      H1520   1.083       .  S
C1514      C3363   1.403       .  A
C1515      C3362   1.403   1_455  A
C1515      C1516   1.400       .  A
C1515      N1522   1.428       .  S
C1516      C1517   1.411       .  A
C1516      H1521   1.083       .  S
C1517      C3366   1.423   1_455  A
C1518      C3365   1.423       .  A
C1518      N1519   1.432       .  S
N1519      O1523   1.263       .  A
N1519      O1524   1.260       .  A
N1522      O1526   1.262       .  A
N1522      O1525   1.262       .  A
C1527      C1532   1.396       .  A
C1527      H1534   1.082       .  S
C1528      C1529   1.420       .  A
C1529      C1530   1.401       .  A
C1529      N1536   1.427       .  S
C1530      H1535   1.084       .  S
C1531      C1532   1.409       .  A
C1532      N1533   1.427       .  S
N1533      O1537   1.257       .  A
N1533      O1538   1.259       .  A
N1536      O1540   1.262       .  A
N1536      O1539   1.262       .  A
C1541      C3390   1.406   1_455  A
C1541      C1546   1.400       .  A
C1541      H1548   1.080       .  S
C1542      C3389   1.408       .  A
C1542      C1543   1.423       .  A
C1543      C3392   1.414       .  A
C1543      N1550   1.426       .  S
C1544      C3391   1.415   1_455  A
C1544      C1545   1.408       .  A
C1544      H1549   1.083       .  S
C1545      C1546   1.414       .  A
C1546      N1547   1.435       .  S
N1547      O1551   1.261       .  A
N1547      O1552   1.262       .  A
N1550      O1554   1.262       .  A
N1550      O1553   1.262       .  A
C1555      C1556   1.403       .  A
C1555      C1560   1.403       .  A
C1555      H1562   1.083       .  S
C1556      C1557   1.405       .  A
C1557      C1558   1.406       .  A
C1557      N1564   1.427       .  S
C1558      C1559   1.409       .  A
C1558      H1563   1.083       .  S
C1559      C1560   1.416       .  A
C1560      N1561   1.429       .  S
N1561      O1565   1.261       .  A
N1561      O1566   1.261       .  A
N1564      O1568   1.261       .  A
N1564      O1567   1.262       .  A
C1569      C1570   1.397       .  A
C1569      C1574   1.392       .  A
C1569      H1576   1.079       .  S
C1571      C1572   1.398       .  A
C1571      N1578   1.427       .  S
C1572      C1573   1.412       .  A
C1572      H1577   1.083       .  S
C1574      N1575   1.438       .  S
N1575      O1579   1.262       .  A
N1575      O1580   1.262       .  A
N1578      O1582   1.262       .  A
N1578      O1581   1.261       .  A
C1583      C1584   1.407       .  A
C1583      C1588   1.395       .  A
C1583      H1590   1.082       .  S
C1584      C1585   1.417       .  A
C1585      C1586   1.402       .  A
C1585      N1592   1.429       .  S
C1586      C1587   1.406       .  A
C1586      H1591   1.082       .  S
C1587      C1588   1.409       .  A
C1588      N1589   1.436       .  S
N1589      O1593   1.262       .  A
N1589      O1594   1.261       .  A
N1592      O1596   1.262       .  A
N1592      O1595   1.262       .  A
C1597      C1598   1.416   1_545  A
C1597      C1602   1.406       .  A
C1597      H1604   1.082       .  S
C1598      C1599   1.429       .  A
C1599      C1600   1.401       .  A
C1599      N1606   1.425       .  S
C1600      C1601   1.392       .  A
C1600      H1605   1.085       .  S
C1601      C1602   1.402   1_565  A
C1602      N1603   1.426       .  S
N1603      O1607   1.261       .  A
N1603      O1608   1.262       .  A
N1606      O1610   1.256       .  A
N1606      O1609   1.259       .  A
C1611      C1612   1.391   1_545  A
C1611      C1616   1.388       .  A
C1612      C1613   1.403       .  A
C1613      C1614   1.410       .  A
C1613      N1620   1.429       .  S
C1614      C1615   1.415       .  A
C1614      H1619   1.083       .  S
C1615      C1616   1.435   1_565  A
N1617      O1621   1.260       .  A
N1620      O1624   1.260       .  A
N1620      O1623   1.262   1_565  A
C1625      C1626   1.411       .  A
C1625      C1630   1.411       .  A
C1625      H1632   1.082       .  S
C1626      C1627   1.413       .  A
C1627      C1628   1.398       .  A
C1627      N1634   1.430       .  S
C1628      C1629   1.402       .  A
C1628      H1633   1.078       .  S
C1629      C1630   1.413       .  A
C1630      N1631   1.426       .  S
N1631      O1635   1.261       .  A
N1631      O1636   1.263       .  A
N1634      O1638   1.261       .  A
N1634      O1637   1.260       .  A
C1639      C1640   1.405       .  A
C1639      C1644   1.416       .  A
C1639      H1646   1.082       .  S
C1640      C1641   1.407       .  A
C1641      C1642   1.391       .  A
C1641      N1648   1.433       .  S
C1642      C1643   1.401       .  A
C1642      H1647   1.072       .  S
C1643      C1644   1.422       .  A
C1644      N1645   1.443       .  S
N1645      O1649   1.263       .  A
N1645      O1650   1.262       .  A
N1648      O1652   1.260       .  A
N1648      O1651   1.262       .  A
C1653      C1654   1.403   1_655  A
C1653      C1658   1.406   1_655  A
C1653      H3508   1.083       .  S
C1654      C1655   1.406       .  A
C1655      C1656   1.397       .  A
C1655      N1662   1.425       .  S
C1656      C1657   1.404       .  A
C1656      H1661   1.074       .  S
C1657      C1658   1.424       .  A
C1658      N3507   1.429   1_455  S
N1659      C3506   1.428       .  S
N1659      O1663   1.262       .  A
N1659      O1664   1.258       .  A
H1660      C3501   1.083       .  S
N1662      O1666   1.257       .  A
N1662      O1665   1.258       .  A
C1667      C1668   1.412       .  A
C1667      C1672   1.412       .  A
C1667      H1674   1.083       .  S
C1668      C1669   1.405       .  A
C1669      C1670   1.376       .  A
C1669      N1676   1.425       .  S
C1670      C1671   1.393       .  A
C1670      H1675   1.085       .  S
C1671      C1672   1.407       .  A
C1672      N1673   1.431       .  S
N1673      O1677   1.262       .  A
N1673      O1678   1.262       .  A
N1676      O1680   1.263       .  A
N1676      O1679   1.262   1_455  A
C1681      C1682   1.412       .  A
C1681      C1686   1.406       .  A
C1681      H3536   1.083       .  S
C1682      C1683   1.411       .  A
C1683      C1684   1.394       .  A
C1683      N1690   1.434       .  S
C1684      C1685   1.400       .  A
C1684      H1689   1.084       .  S
C1685      C1686   1.413       .  A
C1686      N3535   1.428       .  S
N1687      C3534   1.428       .  S
N1687      O1691   1.262       .  A
N1687      O1692   1.262       .  A
H1688      C3529   1.084       .  S
N1690      O1694   1.262       .  A
N1690      O1693   1.262       .  A
C1695      C1696   1.412       .  A
C1695      C1700   1.402       .  A
C1695      H1702   1.082       .  S
C1696      C1697   1.419       .  A
C1697      C1698   1.410       .  A
C1697      N1704   1.434       .  S
C1698      C1699   1.398       .  A
C1698      H1703   1.083       .  S
C1699      C1700   1.408       .  A
C1700      N1701   1.432       .  S
N1701      O1705   1.261       .  A
N1701      O1706   1.262       .  A
N1704      O1708   1.262       .  A
N1704      O1707   1.262       .  A
C1709      C1710   1.409       .  A
C1709      C1714   1.414       .  A
C1709      H3564   1.083       .  S
C1710      C1711   1.410       .  A
C1711      C1712   1.401       .  A
C1711      N1718   1.435       .  S
C1712      C1713   1.409       .  A
C1712      H1717   1.076       .  S
C1713      C1714   1.416       .  A
C1714      N3563   1.427       .  S
N1715      C3562   1.427   1_455  S
N1715      O1719   1.262       .  A
N1715      O1720   1.262       .  A
H1716      C3557   1.083   1_455  S
N1718      O1722   1.261       .  A
N1718      O1721   1.261       .  A
C1723      C1724   1.401       .  A
C1723      C1728   1.401       .  A
C1723      H1730   1.084       .  S
C1724      C1725   1.408       .  A
C1725      C1726   1.403       .  A
C1725      N1732   1.425       .  S
C1726      C1727   1.404       .  A
C1726      H1731   1.084       .  S
C1727      C1728   1.419       .  A
C1728      N1729   1.429       .  S
N1729      O1733   1.262       .  A
N1729      O1734   1.261       .  A
N1732      O1736   1.261       .  A
N1732      O1735   1.259       .  A
C1737      C1738   1.403       .  A
C1737      C1742   1.393       .  A
C1737      H1744   1.081       .  S
C1738      C1739   1.420       .  A
C1739      C1740   1.396       .  A
C1740      C1741   1.397       .  A
C1741      C1742   1.410       .  A
C1742      N1743   1.428       .  S
N1743      O1747   1.260       .  A
N1743      O1748   1.261       .  A
N1746      O1750   1.261       .  A
N1746      O1749   1.263       .  A
C1751      C1752   1.394       .  A
C1751      C1756   1.385       .  A
C1751      H1758   1.076       .  S
C1752      C1753   1.407       .  A
C1753      C1754   1.404       .  A
C1753      N1760   1.428       .  S
C1754      C1755   1.408       .  A
C1754      H1759   1.084       .  S
C1755      C1756   1.410       .  A
C1756      N1757   1.430       .  S
N1757      O1761   1.262       .  A
N1757      O1762   1.262       .  A
N1760      O1764   1.261       .  A
N1760      O1763   1.261       .  A
C1765      C1766   1.403       .  A
C1765      C1770   1.415       .  A
C1765      H1772   1.083       .  S
C1766      C1767   1.405       .  A
C1767      C1768   1.401       .  A
C1767      N1774   1.432       .  S
C1768      C1769   1.411       .  A
C1768      H1773   1.080   1_556  S
C1769      C1770   1.420       .  A
C1770      N1771   1.433       .  S
N1771      O1775   1.261       .  A
N1771      O1776   1.263       .  A
N1774      O1778   1.261       .  A
N1774      O1777   1.262       .  A
C1779      C1780   1.418   1_655  A
C1779      C1784   1.419       .  A
C1779      H3634   1.083       .  S
C1780      C1781   1.425       .  A
C1781      C1782   1.396       .  A
C1781      N1788   1.414       .  S
C1782      C1783   1.389   1_455  A
C1782      H1787   1.086   1_556  S
C1783      C1784   1.410       .  A
C1784      N3633   1.426       .  S
N1785      C3632   1.426       .  S
N1785      O1789   1.262       .  A
N1785      O1790   1.261       .  A
H1786      C3627   1.083       .  S
N1788      O1792   1.262       .  A
N1788      O1791   1.262       .  A
C1793      C1794   1.390       .  A
C1793      C1798   1.391       .  A
C1793      H1800   1.083       .  S
C1794      C1795   1.420       .  A
C1795      C1796   1.408       .  A
C1795      N1802   1.427       .  S
C1796      C1797   1.404       .  A
C1796      H1801   1.083       .  S
C1797      C1798   1.398       .  A
C1798      N1799   1.410       .  S
N1799      O1803   1.255       .  A
N1799      O1804   1.262       .  A
N1802      O1806   1.260       .  A
N1802      O1805   1.262       .  A
C1807      C1808   1.393       .  A
C1807      C1812   1.388       .  A
C1807      H1814   1.081       .  S
C1808      C1809   1.402   1_565  A
C1810      H1815   1.078       .  S
C1811      C1812   1.415       .  A
C1812      N1813   1.433   1_556  S
N1813      O1817   1.262       .  A
N1813      O1818   1.263       .  A
N1816      O1820   1.261       .  A
N1816      O1819   1.262       .  A
C1821      C1822   1.399   1_655  A
C1821      C1826   1.400       .  A
C1821      H1828   1.077       .  S
C1822      C1823   1.403       .  A
C1823      C1824   1.393       .  A
C1823      N1830   1.433       .  S
C1824      C1825   1.408   1_455  A
C1824      H1829   1.064       .  S
C1825      C1826   1.421       .  A
C1826      N3675   1.428       .  S
N1827      C3674   1.425       .  S
N1827      O1831   1.262       .  A
N1827      O1832   1.259       .  A
N1830      O1834   1.262       .  A
N1830      O1833   1.262       .  A
C1835      C1836   1.409       .  A
C1835      C1840   1.406   1_565  A
C1836      C1837   1.419       .  A
C1837      C1838   1.392       .  A
C1837      N1844   1.426       .  S
C1838      C1839   1.391       .  A
C1838      H1843   1.085       .  S
C1839      C1840   1.413   1_565  A
N1841      O1845   1.262       .  A
N1841      O1846   1.262       .  A
N1844      O1848   1.261       .  A
N1844      O1847   1.262       .  A
C1849      C1850   1.535       .  S
C1849      C1855   1.521       .  S
C1849      C1853   1.539       .  S
C1849      C2185   1.517       .  S
C1850      H1857   1.085       .  S
C1850      C1851   1.376       .  D
C1851      C1852   1.550       .  S
C1851      C2746   1.483       .  S
C1852      C1856   1.524       .  S
C1852      C1854   1.540       .  S
C1852      H1858   1.102       .  S
C1853      H1859   1.085       .  S
C1853      C1854   1.373       .  D
C1854      C2760   1.497       .  S
C1855      H1860   1.069       .  S
C1855      C1856   1.356       .  D
C1856      C1901   1.477       .  S
C1861      C1862   1.537       .  S
C1861      C1867   1.523       .  S
C1861      C1865   1.535       .  S
C1861      C2180   1.494       .  S
C1862      H1869   1.086       .  S
C1862      C1863   1.366       .  D
C1863      C1864   1.539       .  S
C1863      C2732   1.461       .  S
C1864      C1868   1.529       .  S
C1864      C1866   1.546       .  S
C1864      H1870   1.109       .  S
C1865      H1871   1.084       .  S
C1865      C1866   1.364       .  D
C1866      C2718   1.486       .  S
C1867      H1872   1.071       .  S
C1867      C1868   1.354       .  D
C1868      C1886   1.478       .  S
C1873      C1874   1.537       .  S
C1873      C1879   1.519       .  S
C1873      C1877   1.546       .  S
C1873      C2184   1.526       .  S
C1874      H1881   1.086       .  S
C1874      C1875   1.368       .  D
C1875      C1876   1.564       .  S
C1875      C2690   1.490       .  S
C1876      C1880   1.557       .  S
C1876      C1878   1.561       .  S
C1876      H1882   1.095       .  S
C1877      H1883   1.086       .  S
C1877      C1878   1.379       .  D
C1878      C2704   1.526       .  S
C1879      H1884   1.070       .  S
C1879      C1880   1.352       .  D
C1880      C1890   1.505       .  S
O1885      C1900   1.266       .  A
O1885     Al1893   1.923       .  S
C1886      O1896   1.263       .  A
C1886      O1887   1.266       .  A
O1887     Al1889   1.926       .  S
O1888      C1890   1.267       .  A
O1888     Al1889   1.949       .  S
Al1889     O1897   1.924       .  S
Al1889     O1899   1.929       .  S
Al1889     O1898   1.782       .  S
C1890      O1903   1.270       .  A
O1891      C1901   1.264       .  A
O1891     Al1893   1.915       .  S
O1892      C1905   1.261       .  A
O1892     Al1902   1.904       .  S
Al1893     O1906   1.947       .  S
Al1893     O1903   1.948       .  S
Al1893     O1898   1.782       .  S
O1894      C1901   1.266       .  A
O1894     Al1902   1.929       .  S
O1895      C1904   1.264       .  A
O1895     Al1902   1.927       .  S
O1896     Al1902   1.916       .  S
O1897      C1904   1.265       .  A
O1898     Al1902   1.786       .  S
O1899      C1900   1.266       .  A
C1900      C2141   1.518       .  S
C1904      C2129   1.518       .  S
C1905      C2153   1.517       .  S
C1905      O1906   1.268       .  A
C1907      C1908   1.410   1_556  A
C1907      C2836   1.392   1_556  A
C1907      C2763   1.478       .  S
C1908      C2833   1.402       .  A
C1908      C2735   1.473   1_554  S
C1909      C2832   1.401       .  A
C1909      C1910   1.401       .  A
C1909      H1914   1.082       .  S
C1910      C1911   1.424       .  A
C1910      C2662   1.501       .  S
C1911      C1912   1.400       .  A
C1911      C2679   1.473       .  S
C1912      C2831   1.391   1_554  A
C1912      H1913   1.085   1_545  S
C1915      C1916   1.547       .  S
C1915      C1921   1.529       .  S
C1915      C1919   1.528       .  S
C1915      C2102   1.509       .  S
C1916      H1923   1.086       .  S
C1916      C1917   1.372       .  D
C1917      C1918   1.539       .  S
C1917      C2648   1.494       .  S
C1918      C1922   1.532       .  S
C1918      C1920   1.552       .  S
C1918      H1924   1.106       .  S
C1919      H1925   1.086   1_545  S
C1919      C1920   1.364       .  D
C1920      C2676   1.465       .  S
C1921      H1926   1.069       .  S
C1921      C1922   1.355       .  D
C1922      C1956   1.485       .  S
C1927      C1928   1.548       .  S
C1927      C1933   1.519       .  S
C1927      C1931   1.541       .  S
C1927      C2098   1.522       .  S
C1928      H1935   1.083       .  S
C1928      C1929   1.385       .  D
C1929      C1930   1.558       .  S
C1929      C2637   1.506       .  S
C1930      C1934   1.548       .  S
C1930      C1932   1.543       .  S
C1930      H1936   1.104       .  S
C1931      H1937   1.087       .  S
C1931      C1932   1.361       .  D
C1932      C2623   1.487       .  S
C1933      H1938   1.076       .  S
C1933      C1934   1.354       .  D
C1934      C1952   1.494       .  S
C1939      C1940   1.533       .  S
C1939      C1945   1.528       .  S
C1939      C1943   1.549       .  S
C1939      C2103   1.508       .  S
C1940      H1947   1.085       .  S
C1940      C1941   1.375       .  D
C1941      C1942   1.547       .  S
C1941      C2665   1.490       .  S
C1942      C1946   1.519       .  S
C1942      C1944   1.539       .  S
C1942      H1948   1.097       .  S
C1943      H1949   1.084   1_655  S
C1943      C1944   1.369       .  D
C1944      C2609   1.494       .  S
C1945      H1950   1.075       .  S
C1945      C1946   1.357       .  D
C1946      C1967   1.478       .  S
O1951      C1966   1.260       .  A
O1951     Al1959   1.893       .  S
C1952      O1962   1.259       .  A
C1952      O1953   1.262       .  A
O1953     Al1955   1.939       .  S
O1954      C1956   1.266       .  A
O1954     Al1955   1.928       .  S
Al1955     O1963   1.919       .  S
Al1955     O1965   1.926       .  S
Al1955     O1964   1.792       .  S
C1956      O1969   1.262       .  A
O1957      C1967   1.257       .  A
O1957     Al1959   1.897       .  S
O1958      C1971   1.258       .  A
O1958     Al1968   1.898       .  S
Al1959     O1972   1.918       .  S
Al1959     O1969   1.919       .  S
Al1959     O1964   1.794       .  S
O1960      C1967   1.271       .  A
O1960     Al1968   1.942       .  S
O1961      C1970   1.268       .  A
O1961     Al1968   1.939       .  S
O1962     Al1968   1.912       .  S
O1963      C1970   1.267       .  A
O1964     Al1968   1.792       .  S
O1965      C1966   1.260       .  A
C1966      C2047   1.510       .  S
C1970      C2059   1.526       .  S
C1971      C2071   1.511       .  S
C1971      O1972   1.266       .  A
C1973      C1974   1.431       .  A
C1973      C2707   1.496       .  S
C1974      C1975   1.413   1_556  A
C1974      C2749   1.506       .  S
C1975      H1980   1.082       .  S
C1976      C1977   1.418       .  A
C1976      C2634   1.495       .  S
C1977      C1978   1.408       .  A
C1977      C2606   1.495       .  S
C1978      H1979   1.085       .  S
C1981      C1982   1.432       .  A
C1981      C1986   1.408       .  A
C1981      C2721   1.491   1_554  S
C1982      C1983   1.409       .  A
C1982      C2693   1.521   1_554  S
C1983      C1984   1.408       .  A
C1983      H1988   1.083       .  S
C1984      C1985   1.429       .  A
C1984      C2651   1.494       .  S
C1985      C1986   1.408       .  A
C1985      C2620   1.515       .  S
C1986      H1987   1.083       .  S
C1989      C1990   1.539       .  S
C1989      C1993   1.539       .  S
C1989      C2242   1.508       .  S
C1990      H1997   1.086       .  S
C1991      C1992   1.545       .  S
C1991      C2578   1.499       .  S
C1992      C1996   1.534       .  S
C1992      C1994   1.542       .  S
C1992      H1998   1.095       .  S
C1993      H1999   1.086       .  S
C1994      C2592   1.473       .  S
C1995      H2000   1.073       .  S
C1995      C1996   1.355       .  D
C1996      C2030   1.477       .  S
C2001      C2002   1.535       .  S
C2001      C2007   1.525       .  S
C2001      C2005   1.548       .  S
C2001      C2243   1.510       .  S
C2002      H2009   1.086       .  S
C2002      C2003   1.363       .  D
C2003      C2004   1.547       .  S
C2003      C2550   1.504       .  S
C2004      C2008   1.531       .  S
C2004      C2006   1.548       .  S
C2004      H2010   1.089       .  S
C2005      H2011   1.084       .  S
C2005      C2006   1.385       .  D
C2006      C2564   1.502       .  S
C2007      H2012   1.074       .  S
C2007      C2008   1.353       .  D
C2008      C2041   1.480       .  S
C2013      C2014   1.537       .  S
C2013      C2943   1.527       .  S
C2013      C2017   1.541       .  S
C2013      C2238   1.526       .  S
C2014      H2021   1.085       .  S
C2014      C2939   1.386       .  D
C2015      C2016   1.565       .  S
C2015      C2938   1.385       .  D
C2015      C2522   1.513       .  S
C2016      C2020   1.542       .  S
C2016      C2018   1.543       .  S
C2016      H2022   1.097       .  S
C2017      H2023   1.087       .  S
C2017      C2942   1.359   1_545  D
C2018      C2941   1.359       .  D
C2018      C2536   1.476       .  S
C2019      C2937   1.527       .  S
C2019      H2024   1.076       .  S
C2019      C2020   1.356       .  D
C2020      C2026   1.494       .  S
O2025      C2040   1.264       .  A
O2025     Al2033   1.906       .  S
C2026      O2036   1.265       .  A
C2026      O2027   1.264       .  A
O2027     Al2029   1.931       .  S
O2028      C2030   1.262       .  A
O2028     Al2029   1.915       .  S
Al2029     O2037   1.917       .  S
Al2029     O2039   1.913       .  S
Al2029     O2038   1.789       .  S
C2030      O2043   1.259       .  A
O2031      C2041   1.263       .  A
O2031     Al2033   1.916       .  S
O2032      C2045   1.263       .  A
O2032     Al2042   1.924       .  S
Al2033     O2046   1.925       .  S
Al2033     O2043   1.915       .  S
Al2033     O2038   1.787       .  S
O2034      C2041   1.268       .  A
O2034     Al2042   1.930       .  S
O2035      C2044   1.269       .  A
O2035     Al2042   1.929       .  S
O2036     Al2042   1.937       .  S
O2037      C2044   1.264       .  A
O2038     Al2042   1.782       .  S
O2039      C2040   1.262       .  A
C2040      C2199   1.506       .  S
C2044      C2187   1.517       .  S
C2045      C2211   1.521       .  S
C2045      O2046   1.262       .  A
C2047      C2048   1.538       .  S
C2047      C2053   1.523       .  S
C2047      C2051   1.542       .  S
C2048      H2055   1.085       .  S
C2048      C2049   1.383       .  D
C2049      C2050   1.559       .  S
C2049      C2511   1.493       .  S
C2050      C2054   1.523       .  S
C2050      C2052   1.528       .  S
C2050      H2056   1.107       .  S
C2051      H2057   1.087       .  S
C2051      C2052   1.360       .  D
C2052      C2494   1.470       .  S
C2053      H2058   1.076       .  S
C2053      C2054   1.357       .  D
C2054      C2084   1.479       .  S
C2059      C2060   1.559       .  S
C2059      C2065   1.524       .  S
C2059      C2063   1.539       .  S
C2060      H2067   1.082       .  S
C2060      C2061   1.386       .  D
C2061      C2062   1.550       .  S
C2061      C2466   1.521       .  S
C2062      C2066   1.535       .  S
C2062      C2064   1.543       .  S
C2062      H2068   1.097       .  S
C2063      H2069   1.086       .  S
C2063      C2064   1.368       .  D
C2064      C2480   1.482       .  S
C2065      H2070   1.070       .  S
C2065      C2066   1.349       .  D
C2066      C2088   1.490       .  S
C2071      C2072   1.545       .  S
C2071      C2077   1.533       .  S
C2071      C2075   1.533       .  S
C2072      H2079   1.082       .  S
C2072      C2073   1.373       .  D
C2073      C2074   1.546       .  S
C2073      C2452   1.503       .  S
C2074      C2078   1.532       .  S
C2074      C2076   1.543       .  S
C2074      H2080   1.101       .  S
C2075      H2081   1.086       .  S
C2075      C2076   1.366       .  D
C2076      C2438   1.470       .  S
C2077      H2082   1.073       .  S
C2077      C2078   1.358       .  D
C2078      C2099   1.491       .  S
O2083      C2098   1.270       .  A
O2083     Al2091   1.926       .  S
C2084      O2094   1.261       .  A
C2084      O2085   1.269   1_545  A
O2085     Al3011   1.933       .  S
O2086     Al2087   1.920       .  S
Al2087     O3009   1.935       .  S
Al2087     O3019   1.905       .  S
Al2087     O3020   1.793       .  S
C2088      O2101   1.262       .  A
O2089      C2099   1.268       .  A
O2089     Al3015   1.936   1_545  S
O2090      C2103   1.258       .  A
Al2091     O3013   1.933       .  S
Al2091     O3028   1.920       .  S
Al2091     O2101   1.934       .  S
O2092      C2099   1.264   1_455  A
O2093      C2102   1.265       .  A
O2093     Al2100   1.920       .  S
O2094     Al2100   1.906       .  S
O2095      C2102   1.261       .  A
O2095     Al3011   1.903   1_545  S
O2096     Al3011   1.790   1_545  S
O2096     Al2100   1.790       .  S
O2097      C2098   1.264       .  A
C2103      O2104   1.261       .  A
O2104     Al3015   1.920   1_545  S
C2105      C2106   1.417       .  A
C2105      C2110   1.390       .  A
C2105      C2595   1.470       .  S
C2106      C2107   1.414       .  A
C2106      C2553   1.508       .  S
C2107      C2108   1.418       .  A
C2107      H2112   1.079       .  S
C2108      C2109   1.426       .  A
C2108      C2508   1.502       .  S
C2109      C2110   1.385       .  A
C2109      C2441   1.495       .  S
C2110      H2111   1.081       .  S
C2113      C2114   1.415       .  A
C2113      C2118   1.405       .  A
C2113      C2567   1.489       .  S
C2114      C2115   1.401       .  A
C2114      C2525   1.481       .  S
C2115      C2116   1.408       .  A
C2115      H2120   1.084       .  S
C2116      C2117   1.422       .  A
C2116      C2455   1.491       .  S
C2117      C2118   1.406       .  A
C2117      C2483   1.496       .  S
C2118      H2119   1.084       .  S
C2121      C2122   1.443       .  A
C2121      C2126   1.420       .  A
C2121      C2581   1.509       .  S
C2122      C2123   1.396       .  A
C2122      C2539   1.520       .  S
C2123      C2124   1.395       .  A
C2123      H2128   1.063       .  S
C2124      C2125   1.418       .  A
C2124      C2497   1.497       .  S
C2125      C2126   1.407       .  A
C2125      C2469   1.512       .  S
C2126      H2127   1.075       .  S
C2129      C2130   1.560       .  S
C2129      C2135   1.524       .  S
C2129      C2133   1.531       .  S
C2130      H2137   1.083       .  S
C2130      C2131   1.384       .  D
C2131      C2132   1.544       .  S
C2131      C2410   1.516       .  S
C2132      C2136   1.532       .  S
C2132      C2134   1.547       .  S
C2132      H2138   1.100       .  S
C2133      H2139   1.086       .  S
C2133      C2134   1.363       .  D
C2134      C2424   1.470       .  S
C2135      H2140   1.071       .  S
C2135      C2136   1.352       .  D
C2136      C2170   1.490       .  S
C2141      C2142   1.559       .  S
C2141      C2147   1.524       .  S
C2141      C2145   1.533       .  S
C2142      H2149   1.085       .  S
C2142      C2143   1.380       .  D
C2143      C2144   1.534       .  S
C2143      C2399   1.502       .  S
C2144      C2148   1.529       .  S
C2144      C2146   1.544       .  S
C2144      H2150   1.105       .  S
C2145      H2151   1.086       .  S
C2145      C2146   1.366       .  D
C2146      C2382   1.471       .  S
C2147      H2152   1.073       .  S
C2147      C2148   1.353       .  D
C2148      C2166   1.476       .  S
C2153      C2154   1.551       .  S
C2153      C2159   1.527       .  S
C2153      C2157   1.529       .  S
C2154      H2161   1.082       .  S
C2154      C2155   1.380       .  D
C2155      C2156   1.544       .  S
C2155      C2357   1.511       .  S
C2156      C2160   1.533       .  S
C2156      C2158   1.549       .  S
C2156      H2162   1.103       .  S
C2157      H2163   1.086       .  S
C2157      C2158   1.360       .  D
C2158      C2368   1.468       .  S
C2159      H2164   1.070       .  S
C2159      C2160   1.357       .  D
C2160      C2181   1.492       .  S
O2165      C2180   1.271       .  A
O2165     Al2173   1.939       .  S
C2166      O2176   1.274       .  A
C2166      O2167   1.258       .  A
O2168      C3094   1.272       .  A
O2168     Al2169   1.955   1_565  S
Al2169     O3103   1.882       .  S
C2170      O3092   1.272       .  A
C2170      O2183   1.261       .  A
O2171      C2181   1.271       .  A
O2172      C2185   1.270       .  A
O2172     Al3106   1.944       .  S
Al2173     O2183   1.918       .  S
O2174      C2181   1.261       .  A
O2174     Al3106   1.912       .  S
O2175      C2184   1.262       .  A
O2175     Al2182   1.915       .  S
O2176     Al2182   1.955       .  S
O2177      C2184   1.271       .  A
O2178     Al2182   1.773   1_565  S
O2179      C2180   1.255       .  A
O2179     Al3093   1.879       .  S
Al2182     O3096   1.942   1_545  S
Al2182     O3098   1.914   1_545  S
C2185      O2186   1.260       .  A
C2187      C2188   1.540       .  S
C2187      C3117   1.522       .  S
C2187      C2191   1.546       .  S
C2188      H2195   1.086       .  S
C2188      C3113   1.368       .  D
C2189      C2190   1.535       .  S
C2189      C3112   1.360   1_545  D
C2189      C2326   1.474       .  S
C2190      C2194   1.526       .  S
C2190      C2192   1.549       .  S
C2190      H2196   1.108       .  S
C2191      H2197   1.085       .  S
C2191      C3116   1.384       .  D
C2192      C3115   1.383   1_545  D
C2192      C2340   1.492       .  S
C2193      C3111   1.525   1_545  S
C2193      H2198   1.074       .  S
C2193      C2194   1.356       .  D
C2194      C2228   1.473       .  S
C2199      C2200   1.534       .  S
C2199      C2203   1.542       .  S
C2200      H2207   1.085       .  S
C2201      C2202   1.547   1_455  S
C2201      C2298   1.466       .  S
C2202      C2206   1.531       .  S
C2202      C2204   1.542       .  S
C2202      H2208   1.099       .  S
C2203      H2209   1.087       .  S
C2204      C2315   1.520       .  S
C2205      H2210   1.072       .  S
C2205      C2206   1.350   1_455  D
C2206      C2224   1.477       .  S
C2211      C2212   1.538       .  S
C2211      C2217   1.527       .  S
C2211      C2215   1.550       .  S
C2212      H2219   1.086       .  S
C2212      C2213   1.371       .  D
C2213      C2214   1.549       .  S
C2213      C2284   1.485       .  S
C2214      C2218   1.539       .  S
C2214      C2216   1.543       .  S
C2214      H2220   1.105       .  S
C2215      H2221   1.084       .  S
C2215      C2216   1.377       .  D
C2216      C2273   1.507       .  S
C2217      H2222   1.073       .  S
C2217      C2218   1.356       .  D
C2218      C2239   1.496       .  S
O2223      C2238   1.266       .  A
O2223     Al2231   1.907       .  S
C2224      O2234   1.258       .  A
C2224      O2225   1.269       .  A
O2225     Al2227   1.939       .  S
O2226      C2228   1.262       .  A
O2226     Al2227   1.909       .  S
Al2227     O2235   1.886       .  S
Al2227     O2237   1.948       .  S
Al2227     O2236   1.781       .  S
C2228      O2241   1.267       .  A
O2229      C2239   1.263       .  A
O2229     Al2231   1.921       .  S
O2230      C2243   1.258       .  A
O2230     Al2240   1.912       .  S
Al2231     O2244   1.926       .  S
Al2231     O2241   1.931       .  S
Al2231     O2236   1.772       .  S
O2232      C2239   1.274       .  A
O2232     Al2240   1.964       .  S
O2233      C2242   1.274       .  A
O2233     Al2240   1.955       .  S
O2234     Al2240   1.907       .  S
O2235      C2242   1.257       .  A
O2236     Al2240   1.782       .  S
O2237      C2238   1.268       .  A
C2243      O2244   1.269       .  A
C2245      C2246   1.417       .  A
C2245      C2250   1.403       .  A
C2245      C2427   1.470       .  S
C2246      C2247   1.397       .  A
C2246      C2354   1.495       .  S
C2247      C2248   1.403       .  A
C2247      H2252   1.085   1_655  S
C2248      C2249   1.417       .  A
C2248      C2301   1.471       .  S
C2249      C2250   1.397       .  A
C2249      C2270   1.495       .  S
C2250      H2251   1.084       .  S
C2253      C2254   1.418       .  A
C2253      C2258   1.403       .  A
C2253      C2396   1.505       .  S
C2254      C2255   1.400       .  A
C2254      C2371   1.473       .  S
C2255      C2256   1.402       .  A
C2255      H2260   1.083       .  S
C2256      C2257   1.425       .  A
C2256      C2343   1.509       .  S
C2257      C2258   1.411       .  A
C2257      C2287   1.478       .  S
C2258      H2259   1.084       .  S
C2261      C2262   1.420       .  A
C2261      C2266   1.407       .  A
C2261      C2385   1.485       .  S
C2262      C2263   1.405       .  A
C2262      C2413   1.497       .  S
C2263      C2264   1.409       .  A
C2263      H2268   1.083       .  S
C2264      C2265   1.424       .  A
C2264      C2329   1.495       .  S
C2265      C2266   1.402       .  A
C2265      C2312   1.498       .  S
C2266      H2267   1.085       .  S
C2269      C2270   1.402       .  A
C2269      C2274   1.404       .  A
C2269      H2276   1.084       .  S
C2270      C2271   1.407       .  A
C2271      C2272   1.401       .  A
C2271      N2278   1.428       .  S
C2272      C2273   1.410       .  A
C2272      H2277   1.081       .  S
C2273      C2274   1.420       .  A
C2274      N2275   1.428       .  S
N2275      O2279   1.262       .  A
N2275      O2280   1.261       .  A
N2278      O2282   1.258       .  A
N2278      O2281   1.261       .  A
C2283      C2284   1.403       .  A
C2283      C2288   1.394       .  A
C2283      H2290   1.079       .  S
C2284      C2285   1.409       .  A
C2285      C2286   1.406       .  A
C2285      N2292   1.428       .  S
C2286      C2287   1.405       .  A
C2286      H2291   1.084       .  S
C2287      C2288   1.409       .  A
C2288      N2289   1.435       .  S
N2289      O2293   1.263       .  A
N2289      O2294   1.262       .  A
N2292      O2296   1.262       .  A
N2292      O2295   1.261       .  A
C2297      C2298   1.399       .  A
C2297      C2302   1.391   1_455  A
C2297      H2304   1.083       .  S
C2298      C2299   1.405   1_455  A
C2299      C2300   1.398       .  A
C2300      C2301   1.403       .  A
C2300      H2305   1.084       .  S
C2301      C2302   1.411       .  A
C2302      N2303   1.432       .  S
N2303      O2307   1.262       .  A
N2303      O2308   1.262   1_655  A
N2306      O2310   1.262       .  A
N2306      O2309   1.262       .  A
C2311      C2312   1.403       .  A
C2311      C2316   1.407   1_655  A
C2311      H2318   1.084   1_655  S
C2312      C2313   1.405       .  A
C2313      C2314   1.409       .  A
C2313      N2320   1.433       .  S
C2314      C2315   1.418       .  A
C2314      H2319   1.080       .  S
C2315      C2316   1.420   1_655  A
C2316      N2317   1.427       .  S
N2317      O2322   1.262       .  A
N2320      O2324   1.261       .  A
N2320      O2323   1.263       .  A
C2325      C2326   1.399   1_565  A
C2325      C2330   1.394   1_565  A
C2325      H2332   1.083       .  S
C2326      C2327   1.403       .  A
C2327      C2328   1.402       .  A
C2327      N2334   1.428       .  S
C2328      C2329   1.410       .  A
C2328      H2333   1.082       .  S
C2329      C2330   1.417       .  A
C2330      N2331   1.430       .  S
N2331      O2335   1.262       .  A
N2331      O2336   1.262   1_545  A
N2334      O2338   1.262       .  A
N2334      O2337   1.262       .  A
C2339      C2340   1.397   1_565  A
C2339      C2344   1.400   1_565  A
C2339      H3270   1.083       .  S
C2340      C2341   1.413       .  A
C2341      C2342   1.402       .  A
C2341      N2348   1.432       .  S
C2342      C2343   1.408       .  A
C2342      H2347   1.078       .  S
C2343      C2344   1.422       .  A
C2344      N3269   1.428   1_545  S
N2345      C3268   1.426       .  S
N2345      O2349   1.261       .  A
N2345      O2350   1.263       .  A
H2346      C3263   1.083       .  S
N2348      O2352   1.262       .  A
N2348      O2351   1.262       .  A
C2353      C2358   1.406       .  A
C2353      H2360   1.083       .  S
C2354      C2355   1.406       .  A
C2355      C2356   1.401       .  A
C2355      N2362   1.428       .  S
C2356      H2361   1.081       .  S
C2357      C2358   1.420       .  A
C2358      N2359   1.427       .  S
N2359      O2363   1.262       .  A
N2359      O2364   1.262       .  A
N2362      O2366   1.262       .  A
N2362      O2365   1.259       .  A
C2367      C2368   1.392       .  A
C2367      C2372   1.388       .  A
C2367      H2374   1.083       .  S
C2368      C3293   1.408       .  A
C2369      C3292   1.407   1_545  A
C2369      C2370   1.401       .  A
C2369      N2376   1.428       .  S
C2370      C2371   1.405       .  A
C2370      H2375   1.084       .  S
C2371      C3296   1.414   1_545  A
C2372      C3295   1.416       .  A
C2372      N2373   1.431       .  S
N2373      O2377   1.263       .  A
N2373      O2378   1.262       .  A
N2376      O2380   1.261       .  A
N2376      O2379   1.262       .  A
C2381      C2386   1.408       .  A
C2382      C2383   1.410       .  A
C2383      N2390   1.440       .  S
C2384      C2385   1.399   1_455  A
C2384      H2389   1.085       .  S
C2385      C2386   1.413       .  A
C2386      N2387   1.429       .  S
N2387      O2391   1.262       .  A
N2387      O2392   1.262       .  A
N2390      O2394   1.263       .  A
N2390      O2393   1.263       .  A
C2395      C2396   1.403       .  A
C2395      C2400   1.397       .  A
C2395      H2402   1.081       .  S
C2396      C2397   1.420       .  A
C2397      C2398   1.409       .  A
C2397      N2404   1.429       .  S
C2398      C2399   1.404       .  A
C2398      H2403   1.083       .  S
C2399      C2400   1.412       .  A
C2400      N2401   1.428       .  S
N2401      O2405   1.262       .  A
N2401      O2406   1.260       .  A
N2404      O2408   1.262       .  A
N2404      O2407   1.262       .  A
C2409      C3334   1.410   1_545  A
C2409      C2414   1.406       .  A
C2409      H2416   1.081       .  S
C2410      C3333   1.410       .  A
C2410      C2411   1.419       .  A
C2411      C2412   1.410       .  A
C2411      N2418   1.428       .  S
C2412      C3337   1.409       .  A
C2412      H2417   1.083       .  S
C2413      C3336   1.405       .  A
C2413      C2414   1.414       .  A
C2414      N2415   1.440       .  S
N2415      O2419   1.262       .  A
N2415      O2420   1.263       .  A
N2418      O2422   1.262       .  A
N2418      O2421   1.262       .  A
C2423      C2424   1.400       .  A
C2423      C2428   1.390       .  A
C2423      H2430   1.080       .  S
C2424      C2425   1.404       .  A
C2425      C2426   1.399       .  A
C2425      N2432   1.427       .  S
C2426      C2427   1.403       .  A
C2426      H2431   1.084       .  S
C2427      C2428   1.410       .  A
C2428      N2429   1.433       .  S
N2429      O2433   1.262       .  A
N2429      O2434   1.262       .  A
N2432      O2436   1.262       .  A
N2432      O2435   1.262       .  A
C2437      C2438   1.395       .  A
C2437      C2442   1.392       .  A
C2437      H2444   1.083       .  S
C2439      C2440   1.399       .  A
C2439      N2446   1.428       .  S
C2440      C2441   1.410       .  A
C2440      H2445   1.083       .  S
C2442      N2443   1.431       .  S
N2443      O2447   1.263       .  A
N2443      O2448   1.260       .  A
N2446      O2450   1.261       .  A
N2446      O2449   1.262       .  A
C2451      C3376   1.406       .  A
C2451      C2456   1.397       .  A
C2451      H2458   1.081       .  S
C2452      C3375   1.406   1_545  A
C2452      C2453   1.421       .  A
C2453      C2454   1.402   1_545  A
C2453      N2460   1.427       .  S
C2454      C3379   1.402       .  A
C2454      H2459   1.084       .  S
C2455      C3378   1.401       .  A
C2455      C2456   1.408       .  A
C2456      N2457   1.426       .  S
N2457      O2461   1.257       .  A
N2457      O2462   1.259       .  A
N2460      O2464   1.262       .  A
N2460      O2463   1.262       .  A
C2465      C2470   1.402       .  A
C2465      H2472   1.080       .  S
C2466      C2467   1.423       .  A
C2467      N2474   1.426       .  S
C2468      C2469   1.408       .  A
C2468      H2473   1.083       .  S
C2469      C2470   1.413       .  A
C2470      N2471   1.434       .  S
N2471      O2475   1.260       .  A
N2471      O2476   1.262       .  A
N2474      O2478   1.262       .  A
N2474      O2477   1.262   1_655  A
C2479      C2480   1.403       .  A
C2479      C2484   1.401       .  A
C2479      H2486   1.083       .  S
C2480      C2481   1.405       .  A
C2481      C2482   1.403       .  A
C2481      N2488   1.427       .  S
C2482      C2483   1.408       .  A
C2482      H2487   1.083       .  S
C2483      C2484   1.415       .  A
C2484      N2485   1.430       .  S
N2485      O2489   1.261       .  A
N2485      O2490   1.261       .  A
N2488      O2492   1.262       .  A
N2488      O2491   1.262       .  A
C2493      C2494   1.396       .  A
C2493      C2498   1.391       .  A
C2493      H2500   1.079       .  S
C2494      C3419   1.399   1_545  A
C2495      C3418   1.399       .  A
C2495      C2496   1.398       .  A
C2495      N2502   1.427       .  S
C2496      C2497   1.412       .  A
C2496      H2501   1.083       .  S
C2497      C3422   1.424       .  A
C2498      C3421   1.423   1_545  A
C2498      N2499   1.438       .  S
N2499      O2503   1.262       .  A
N2499      O2504   1.262       .  A
N2502      O2506   1.262       .  A
N2502      O2505   1.262       .  A
C2507      C2508   1.407       .  A
C2507      C2512   1.396       .  A
C2507      H2514   1.082       .  S
C2508      C2509   1.418       .  A
C2509      C2510   1.403       .  A
C2509      N2516   1.429       .  S
C2510      C2511   1.405       .  A
C2510      H2515   1.082       .  S
C2511      C2512   1.410       .  A
C2512      N2513   1.436       .  S
N2513      O2517   1.262       .  A
N2513      O2518   1.261       .  A
N2516      O2520   1.262       .  A
N2516      O2519   1.262       .  A
C2521      C2522   1.413       .  A
C2521      C2526   1.404       .  A
C2521      H2528   1.083       .  S
C2522      C2523   1.427       .  A
C2523      C2524   1.399       .  A
C2523      N2530   1.425       .  S
C2524      C2525   1.392       .  A
C2524      H2529   1.085       .  S
C2525      C2526   1.403       .  A
C2526      N2527   1.427       .  S
N2527      O2531   1.261       .  A
N2527      O2532   1.262       .  A
N2530      O2534   1.253       .  A
N2530      O2533   1.259       .  A
C2535      C2536   1.391       .  A
C2535      C2540   1.389       .  A
C2535      H3466   1.083       .  S
C2536      C2537   1.402       .  A
C2537      C2538   1.409       .  A
C2537      N2544   1.429       .  S
C2538      C2539   1.417       .  A
C2538      H2543   1.083       .  S
C2539      C2540   1.438       .  A
C2540      N3465   1.437       .  S
N2541      C3464   1.436       .  S
N2541      O2545   1.260       .  A
N2541      O3470   1.260       .  A
H2542      C3459   1.083       .  S
N2544      O2548   1.260       .  A
N2544      O2547   1.262       .  A
O2546      N3465   1.260       .  A
C2549      C2550   1.410       .  A
C2549      C2554   1.410       .  A
C2549      H2556   1.082       .  S
C2550      C2551   1.408       .  A
C2551      C2552   1.398       .  A
C2551      N2558   1.430       .  S
C2552      C2553   1.405       .  A
C2552      H2557   1.077       .  S
C2553      C2554   1.413       .  A
C2554      N2555   1.426       .  S
N2555      O2559   1.260       .  A
N2555      O2560   1.263       .  A
N2558      O2562   1.262       .  A
N2558      O2561   1.258       .  A
C2563      C2564   1.405       .  A
C2563      C2568   1.412       .  A
C2563      H2570   1.081       .  S
C2564      C2565   1.411       .  A
C2565      C2566   1.393       .  A
C2565      N2572   1.432       .  S
C2566      C2567   1.400       .  A
C2566      H2571   1.076       .  S
C2567      C2568   1.419       .  A
C2568      N2569   1.442       .  S
N2569      O2573   1.263       .  A
N2569      O2574   1.261       .  A
N2572      O2576   1.260       .  A
N2572      O2575   1.262       .  A
C2577      C2578   1.404       .  A
C2577      C2582   1.406       .  A
C2578      C2579   1.408       .  A
C2579      C2580   1.396       .  A
C2579      N2586   1.422       .  S
C2580      C2581   1.402       .  A
C2580      H2585   1.076       .  S
C2581      C2582   1.423       .  A
N2583      O2587   1.262       .  A
N2583      O2588   1.257       .  A
N2586      O2590   1.258       .  A
N2586      O2589   1.258       .  A
C2591      C2592   1.411       .  A
C2591      C2596   1.411       .  A
C2591      H2598   1.083       .  S
C2592      C2593   1.405       .  A
C2593      C2594   1.375       .  A
C2593      N2600   1.424       .  S
C2594      C2595   1.393       .  A
C2594      H2599   1.085       .  S
C2595      C2596   1.407       .  A
C2596      N2597   1.433       .  S
N2597      O2601   1.262       .  A
N2597      O2602   1.263       .  A
N2600      O2604   1.263       .  A
N2600      O2603   1.261       .  A
C2605      C2606   1.411   1_455  A
C2605      C2610   1.406       .  A
C2606      C2607   1.410       .  A
C2607      C2608   1.393       .  A
C2607      N2614   1.434       .  S
C2608      C2609   1.400       .  A
C2608      H2613   1.083       .  S
C2609      C2610   1.414   1_655  A
N2611      O2615   1.262       .  A
N2611      O2616   1.262       .  A
N2614      O2618   1.262       .  A
N2614      O2617   1.262       .  A
C2619      C2620   1.412       .  A
C2619      C2624   1.402       .  A
C2619      H2626   1.081       .  S
C2620      C2621   1.421       .  A
C2621      C2622   1.412       .  A
C2621      N2628   1.438       .  S
C2622      C2623   1.399       .  A
C2622      H2627   1.083       .  S
C2623      C2624   1.407       .  A
C2624      N2625   1.432       .  S
N2625      O2629   1.261       .  A
N2625      O2630   1.262       .  A
N2628      O2632   1.262       .  A
N2628      O2631   1.263       .  A
C2633      C2634   1.408       .  A
C2633      C2638   1.412       .  A
C2634      C2635   1.410       .  A
C2635      C2636   1.400       .  A
C2635      N2642   1.435       .  S
C2636      C2637   1.407       .  A
C2636      H2641   1.077       .  S
C2637      C2638   1.416       .  A
N2639      O2643   1.262       .  A
N2639      O2644   1.262       .  A
N2642      O2646   1.261       .  A
N2642      O2645   1.261       .  A
C2647      C2648   1.402       .  A
C2647      C2652   1.402       .  A
C2647      H2654   1.083       .  S
C2648      C2649   1.409       .  A
C2649      C2650   1.402       .  A
C2649      N2656   1.425       .  S
C2650      C2651   1.402       .  A
C2650      H2655   1.084       .  S
C2651      C2652   1.418       .  A
C2652      N2653   1.430       .  S
N2653      O2657   1.262       .  A
N2653      O2658   1.261       .  A
N2656      O2660   1.261       .  A
N2656      O2659   1.259       .  A
C2661      C2662   1.403       .  A
C2661      C2666   1.395       .  A
C2661      H2668   1.081       .  S
C2662      C2663   1.421       .  A
C2663      C2664   1.400       .  A
C2663      N3594   1.428   1_545  S
C2664      C2665   1.400       .  A
C2664      H3593   1.083       .  S
C2665      C2666   1.410       .  A
C2666      N2667   1.428       .  S
N2667      O2671   1.260       .  A
N2667      O2672   1.261       .  A
H2669      C3588   1.083       .  S
N2670      C3587   1.428       .  S
N2670      O2674   1.262       .  A
N2670      O2673   1.263       .  A
C2675      C2676   1.394       .  A
C2675      C2680   1.383       .  A
C2675      H2682   1.077       .  S
C2676      C2677   1.407   1_545  A
C2677      C2678   1.402       .  A
C2677      N2684   1.429       .  S
C2678      C2679   1.407   1_565  A
C2678      H2683   1.084       .  S
C2679      C2680   1.409       .  A
C2680      N2681   1.430       .  S
N2681      O2685   1.262       .  A
N2681      O2686   1.262       .  A
N2684      O2688   1.261       .  A
N2684      O2687   1.261       .  A
C2689      C2690   1.404       .  A
C2689      C2694   1.417       .  A
C2689      H2696   1.083       .  S
C2690      C2691   1.404       .  A
C2691      C2692   1.401       .  A
C2691      N2698   1.432       .  S
C2692      C2693   1.412       .  A
C2692      H2697   1.081   1_556  S
C2693      C2694   1.421       .  A
C2694      N2695   1.435       .  S
N2695      O2699   1.261       .  A
N2695      O2700   1.263       .  A
N2698      O2702   1.261       .  A
N2698      O2701   1.262       .  A
C2703      C2704   1.417       .  A
C2703      C2708   1.417       .  A
C2704      C2705   1.424       .  A
C2705      C2706   1.396       .  A
C2705      N2712   1.416       .  S
C2706      C2707   1.390       .  A
C2706      H2711   1.086   1_556  S
C2707      C2708   1.409       .  A
N2709      O2713   1.262       .  A
N2709      O2714   1.261       .  A
N2712      O2716   1.261       .  A
N2712      O2715   1.262       .  A
C2717      C2718   1.390       .  A
C2717      C2722   1.390       .  A
C2717      H2724   1.083       .  S
C2718      C2719   1.418       .  A
C2719      C2720   1.408       .  A
C2719      N2726   1.427       .  S
C2720      C2721   1.406       .  A
C2720      H2725   1.083       .  S
C2721      C2722   1.397       .  A
C2722      N2723   1.411       .  S
N2723      O2727   1.255       .  A
N2723      O2728   1.262       .  A
N2726      O2730   1.260       .  A
N2726      O2729   1.262       .  A
C2731      C2732   1.395       .  A
C2731      C2736   1.387       .  A
C2731      H2738   1.080       .  S
C2732      C2733   1.403       .  A
C2733      C3658   1.397       .  A
C2733      N3664   1.428       .  S
C2734      C3657   1.398       .  A
C2734      C3659   1.401   1_545  A
C2734      H2739   1.080       .  S
C2735      C3658   1.402       .  A
C2735      C2736   1.413       .  A
C2736      N2737   1.433   1_556  S
N2737      O2741   1.262       .  A
N2737      O2742   1.263       .  A
N2740      C3657   1.428       .  S
N2740      O2744   1.262       .  A
N2740      O2743   1.262       .  A
C2745      C2746   1.399       .  A
C2745      C2750   1.398       .  A
C2745      H2752   1.076       .  S
C2746      C2747   1.404       .  A
C2747      C2748   1.393       .  A
C2747      N2754   1.433       .  S
C2748      C2749   1.406       .  A
C2748      H2753   1.064       .  S
C2749      C2750   1.419       .  A
N2751      O2755   1.262       .  A
N2751      O2756   1.259       .  A
N2754      O2758   1.262       .  A
N2754      O2757   1.262       .  A
C2759      C2760   1.409       .  A
C2759      C2764   1.405       .  A
C2759      H3690   1.083       .  S
C2760      C2761   1.418       .  A
C2761      C2762   1.392       .  A
C2761      N2768   1.426       .  S
C2762      C2763   1.392       .  A
C2762      H2767   1.085       .  S
C2763      C2764   1.412       .  A
C2764      N3689   1.431       .  S
N2765      C3688   1.431       .  S
N2765      O2769   1.262       .  A
N2765      O2770   1.262       .  A
H2766      C3683   1.083   1_545  S
N2768      O2772   1.261       .  A
N2768      O2771   1.262       .  A
C2773      C2774   1.534       .  S
C2773      C2779   1.522       .  S
C2773      C2777   1.538       .  S
C2773      C3109   1.517       .  S
C2774      H2781   1.085       .  S
C2774      C2775   1.377       .  D
C2775      C2776   1.550       .  S
C2775      C3670   1.483       .  S
C2776      C2780   1.525       .  S
C2776      C2778   1.541       .  S
C2776      H2782   1.102       .  S
C2777      H2783   1.085       .  S
C2777      C2778   1.372       .  D
C2778      C3684   1.498       .  S
C2779      H2784   1.070       .  S
C2779      C2780   1.356       .  D
C2780      C2825   1.479       .  S
C2785      C2786   1.538       .  S
C2785      C2791   1.524       .  S
C2785      C2789   1.537       .  S
C2785      C3104   1.497       .  S
C2786      H2793   1.086   1_565  S
C2786      C2787   1.367       .  D
C2787      C2788   1.538       .  S
C2787      C3656   1.462       .  S
C2788      C2792   1.528       .  S
C2788      C2790   1.545       .  S
C2788      H2794   1.109       .  S
C2789      H2795   1.083       .  S
C2789      C2790   1.365       .  D
C2790      C3642   1.489       .  S
C2791      H2796   1.072       .  S
C2791      C2792   1.354       .  D
C2792      C2810   1.475       .  S
C2797      C2798   1.536       .  S
C2797      C2803   1.520       .  S
C2797      C2801   1.548       .  S
C2797      C3108   1.526       .  S
C2798      H2805   1.086       .  S
C2798      C2799   1.366       .  D
C2799      C2800   1.563       .  S
C2799      C3614   1.488       .  S
C2800      C2804   1.556       .  S
C2800      C2802   1.560       .  S
C2800      H2806   1.095       .  S
C2801      H2807   1.086       .  S
C2801      C2802   1.381       .  D
C2802      C3628   1.527       .  S
C2803      H2808   1.069       .  S
C2803      C2804   1.352       .  D
C2804      C2814   1.504       .  S
O2809      C2824   1.268       .  A
O2809     Al2817   1.929       .  S
C2810      O2820   1.262       .  A
C2810      O2811   1.264       .  A
O2811     Al2813   1.918       .  S
O2812      C2814   1.267       .  A
O2812     Al2813   1.949       .  S
Al2813     O2821   1.924       .  S
Al2813     O2823   1.921       .  S
Al2813     O2822   1.785       .  S
C2814      O2827   1.269       .  A
O2815      C2825   1.265       .  A
O2815     Al2817   1.922       .  S
O2816      C2829   1.261       .  A
O2816     Al2826   1.907       .  S
Al2817     O2830   1.942       .  S
Al2817     O2827   1.943       .  S
Al2817     O2822   1.784       .  S
O2818      C2825   1.265       .  A
O2818     Al2826   1.925       .  S
O2819      C2828   1.263       .  A
O2819     Al2826   1.921       .  S
O2820     Al2826   1.916       .  S
O2821      C2828   1.264       .  A
O2822     Al2826   1.787       .  S
O2823      C2824   1.265       .  A
C2824      C3065   1.518       .  S
C2828      C3053   1.517       .  S
C2829      C3077   1.518       .  S
C2829      O2830   1.266       .  A
C2831      C2832   1.408   1_556  A
C2831      C3687   1.478   1_545  S
C2832      C3659   1.467   1_544  S
C2833      C2834   1.403       .  A
C2833      H2838   1.083       .  S
C2834      C2835   1.425       .  A
C2834      C3586   1.502       .  S
C2835      C2836   1.400       .  A
C2835      C3603   1.476       .  S
C2836      H2837   1.085       .  S
C2839      C2840   1.547       .  S
C2839      C2845   1.528       .  S
C2839      C2843   1.529       .  S
C2839      C3026   1.509       .  S
C2840      H2847   1.086       .  S
C2840      C2841   1.372       .  D
C2841      C2842   1.539       .  S
C2841      C3572   1.494       .  S
C2842      C2846   1.534       .  S
C2842      C2844   1.552       .  S
C2842      H2848   1.105       .  S
C2843      H2849   1.086       .  S
C2843      C2844   1.365       .  D
C2844      C3600   1.467       .  S
C2845      H2850   1.069       .  S
C2845      C2846   1.354       .  D
C2846      C2880   1.486       .  S
C2851      C2852   1.550       .  S
C2851      C2857   1.519       .  S
C2851      C2855   1.542       .  S
C2851      C3022   1.525       .  S
C2852      H2859   1.083       .  S
C2852      C2853   1.387       .  D
C2853      C2854   1.558       .  S
C2853      C3561   1.511       .  S
C2854      C2858   1.548       .  S
C2854      C2856   1.543       .  S
C2854      H2860   1.104       .  S
C2855      H2861   1.087       .  S
C2855      C2856   1.362       .  D
C2856      C3547   1.488       .  S
C2857      H2862   1.076       .  S
C2857      C2858   1.354       .  D
C2858      C2876   1.495       .  S
C2863      C2864   1.533       .  S
C2863      C2869   1.528       .  S
C2863      C2867   1.549       .  S
C2863      C3027   1.510       .  S
C2864      H2871   1.085       .  S
C2864      C2865   1.375       .  D
C2865      C2866   1.547       .  S
C2865      C3589   1.490       .  S
C2866      C2870   1.520       .  S
C2866      C2868   1.541       .  S
C2866      H2872   1.097       .  S
C2867      H2873   1.084   1_655  S
C2867      C2868   1.369       .  D
C2868      C3533   1.496       .  S
C2869      H2874   1.074       .  S
C2869      C2870   1.358       .  D
C2870      C2891   1.480       .  S
O2875      C2890   1.260       .  A
O2875     Al2883   1.896       .  S
C2876      O2886   1.259       .  A
C2876      O2877   1.262       .  A
O2877     Al2879   1.940       .  S
O2878      C2880   1.266       .  A
O2878     Al2879   1.928       .  S
Al2879     O2887   1.919       .  S
Al2879     O2889   1.929       .  S
Al2879     O2888   1.793       .  S
C2880      O2893   1.262       .  A
O2881      C2891   1.258       .  A
O2881     Al2883   1.900       .  S
O2882      C2895   1.258       .  A
O2882     Al2892   1.899       .  S
Al2883     O2896   1.918       .  S
Al2883     O2893   1.920       .  S
Al2883     O2888   1.794       .  S
O2884      C2891   1.271       .  A
O2884     Al2892   1.942       .  S
O2885      C2894   1.268       .  A
O2885     Al2892   1.936       .  S
O2886     Al2892   1.912       .  S
O2887      C2894   1.267       .  A
O2888     Al2892   1.793       .  S
O2889      C2890   1.260       .  A
C2890      C2971   1.513       .  S
C2894      C2983   1.525       .  S
C2895      C2995   1.512       .  S
C2895      O2896   1.266       .  A
C2897      C2898   1.429       .  A
C2897      C3631   1.499       .  S
C2898      C2899   1.413   1_556  A
C2898      C3673   1.502       .  S
C2899      H2904   1.082       .  S
C2900      C2901   1.418       .  A
C2900      C3558   1.496       .  S
C2901      C2902   1.408       .  A
C2901      C3530   1.497       .  S
C2902      H2903   1.085       .  S
C2905      C2906   1.432       .  A
C2905      C2910   1.409       .  A
C2905      C3645   1.493   1_554  S
C2906      C2907   1.409       .  A
C2906      C3617   1.519   1_554  S
C2907      C2908   1.407       .  A
C2907      H2912   1.083       .  S
C2908      C2909   1.429       .  A
C2908      C3575   1.494       .  S
C2909      C2910   1.409       .  A
C2909      C3544   1.515       .  S
C2910      H2911   1.083       .  S
C2913      C2914   1.541       .  S
C2913      C2917   1.541       .  S
C2913      C3166   1.513       .  S
C2914      H2921   1.086       .  S
C2915      C2916   1.543       .  S
C2915      C3502   1.497       .  S
C2916      C2920   1.533       .  S
C2916      C2918   1.542       .  S
C2916      H2922   1.098       .  S
C2917      H2923   1.086       .  S
C2918      C3516   1.471       .  S
C2919      H2924   1.072       .  S
C2919      C2920   1.354       .  D
C2920      C2954   1.477       .  S
C2925      C2926   1.542       .  S
C2925      C2931   1.526       .  S
C2925      C2929   1.544       .  S
C2925      C3167   1.513       .  S
C2926      H2933   1.085       .  S
C2926      C2927   1.366       .  D
C2927      C2928   1.547       .  S
C2927      C3474   1.511       .  S
C2928      C2932   1.530       .  S
C2928      C2930   1.550       .  S
C2928      H2934   1.090       .  S
C2929      H2935   1.084       .  S
C2929      C2930   1.382       .  D
C2930      C3488   1.502       .  S
C2931      H2936   1.074       .  S
C2931      C2932   1.353       .  D
C2932      C2965   1.479       .  S
C2937      C2938   1.535       .  S
C2937      C2941   1.540       .  S
C2937      C3162   1.522       .  S
C2938      H2945   1.085       .  S
C2939      C2940   1.564   1_545  S
C2939      C3446   1.515   1_545  S
C2940      C2944   1.539       .  S
C2940      C2942   1.541       .  S
C2940      H2946   1.097       .  S
C2941      H2947   1.087       .  S
C2942      C3460   1.476       .  S
C2943      H2948   1.075       .  S
C2943      C2944   1.357   1_545  D
C2944      C2950   1.491       .  S
O2949      C2964   1.266       .  A
O2949     Al2957   1.918       .  S
C2950      O2960   1.263       .  A
C2950      O2951   1.265       .  A
O2951     Al2953   1.931       .  S
O2952      C2954   1.266       .  A
O2952     Al2953   1.928       .  S
Al2953     O2961   1.929       .  S
Al2953     O2963   1.923       .  S
Al2953     O2962   1.786       .  S
C2954      O2967   1.259       .  A
O2955      C2965   1.265       .  A
O2955     Al2957   1.925       .  S
O2956      C2969   1.265       .  A
O2956     Al2966   1.923       .  S
Al2957     O2970   1.918       .  S
Al2957     O2967   1.909       .  S
Al2957     O2962   1.787       .  S
O2958      C2965   1.265       .  A
O2958     Al2966   1.922       .  S
O2959      C2968   1.267       .  A
O2959     Al2966   1.913       .  S
O2960     Al2966   1.931       .  S
O2961      C2968   1.266       .  A
O2962     Al2966   1.780       .  S
O2963      C2964   1.263       .  A
C2964      C3123   1.515       .  S
C2968      C3111   1.518       .  S
C2969      C3135   1.515       .  S
C2969      O2970   1.262       .  A
C2971      C2972   1.540       .  S
C2971      C2977   1.522       .  S
C2971      C2975   1.542       .  S
C2972      H2979   1.085       .  S
C2972      C2973   1.384       .  D
C2973      C2974   1.560       .  S
C2973      C3435   1.497       .  S
C2974      C2978   1.525       .  S
C2974      C2976   1.530       .  S
C2974      H2980   1.108       .  S
C2975      H2981   1.087       .  S
C2975      C2976   1.360       .  D
C2976      C3418   1.471       .  S
C2977      H2982   1.076       .  S
C2977      C2978   1.357       .  D
C2978      C3008   1.479       .  S
C2983      C2984   1.558       .  S
C2983      C2989   1.525       .  S
C2983      C2987   1.541       .  S
C2984      H2991   1.083       .  S
C2984      C2985   1.384       .  D
C2985      C2986   1.549       .  S
C2985      C3390   1.517       .  S
C2986      C2990   1.534       .  S
C2986      C2988   1.542       .  S
C2986      H2992   1.097       .  S
C2987      H2993   1.086       .  S
C2987      C2988   1.369       .  D
C2988      C3404   1.482       .  S
C2989      H2994   1.071       .  S
C2989      C2990   1.350       .  D
C2990      C3012   1.489       .  S
C2995      C2996   1.544       .  S
C2995      C3001   1.533       .  S
C2995      C2999   1.533       .  S
C2996      H3003   1.081       .  S
C2996      C2997   1.372       .  D
C2997      C2998   1.547       .  S
C2997      C3376   1.505       .  S
C2998      C3002   1.533       .  S
C2998      C3000   1.542       .  S
C2998      H3004   1.101       .  S
C2999      H3005   1.086       .  S
C2999      C3000   1.366       .  D
C3000      C3362   1.469       .  S
C3001      H3006   1.073       .  S
C3001      C3002   1.358       .  D
C3002      C3023   1.491       .  S
O3007      C3022   1.270       .  A
O3007     Al3015   1.927       .  S
C3008      O3018   1.260       .  A
C3008      O3009   1.268       .  A
O3010     Al3011   1.926       .  S
C3012      O3025   1.262       .  A
O3013      C3023   1.267       .  A
O3014      C3027   1.259       .  A
Al3015     O3025   1.935       .  S
O3016      C3023   1.265   1_455  A
O3017      C3026   1.265       .  A
O3017     Al3024   1.919       .  S
O3018     Al3024   1.903       .  S
O3019      C3026   1.261       .  A
O3020     Al3024   1.792       .  S
O3021      C3022   1.265       .  A
C3027      O3028   1.261       .  A
C3029      C3030   1.416       .  A
C3029      C3034   1.392       .  A
C3029      C3519   1.471       .  S
C3030      C3031   1.415       .  A
C3030      C3477   1.507       .  S
C3031      C3032   1.419       .  A
C3031      H3036   1.079       .  S
C3032      C3033   1.426       .  A
C3032      C3432   1.504       .  S
C3033      C3034   1.387       .  A
C3033      C3365   1.497       .  S
C3034      H3035   1.081       .  S
C3037      C3038   1.416       .  A
C3037      C3042   1.405       .  A
C3037      C3491   1.490       .  S
C3038      C3039   1.400       .  A
C3038      C3449   1.482       .  S
C3039      C3040   1.408       .  A
C3039      H3044   1.084   1_565  S
C3040      C3041   1.423       .  A
C3040      C3379   1.492       .  S
C3041      C3042   1.407       .  A
C3041      C3407   1.498       .  S
C3042      H3043   1.084       .  S
C3045      C3046   1.442       .  A
C3045      C3050   1.420       .  A
C3045      C3505   1.505       .  S
C3046      C3047   1.396       .  A
C3046      C3463   1.520       .  S
C3047      C3048   1.394       .  A
C3047      H3052   1.062   1_565  S
C3048      C3049   1.416       .  A
C3048      C3421   1.495       .  S
C3049      C3050   1.406       .  A
C3049      C3393   1.508       .  S
C3050      H3051   1.076       .  S
C3053      C3054   1.556       .  S
C3053      C3059   1.524       .  S
C3053      C3057   1.533       .  S
C3054      H3061   1.084       .  S
C3054      C3055   1.380       .  D
C3055      C3056   1.541       .  S
C3055      C3334   1.510       .  S
C3056      C3060   1.534       .  S
C3056      C3058   1.545       .  S
C3056      H3062   1.103       .  S
C3057      H3063   1.086       .  S
C3057      C3058   1.366       .  D
C3058      C3348   1.470       .  S
C3059      H3064   1.073       .  S
C3059      C3060   1.353       .  D
C3060      C3094   1.486       .  S
C3065      C3066   1.560       .  S
C3065      C3071   1.525       .  S
C3065      C3069   1.533       .  S
C3066      H3073   1.085       .  S
C3066      C3067   1.379       .  D
C3067      C3068   1.536       .  S
C3067      C3323   1.503       .  S
C3068      C3072   1.533       .  S
C3068      C3070   1.545       .  S
C3068      H3074   1.105       .  S
C3069      H3075   1.086       .  S
C3069      C3070   1.366       .  D
C3070      C3306   1.473       .  S
C3071      H3076   1.073       .  S
C3071      C3072   1.353       .  D
C3072      C3090   1.480       .  S
C3077      C3078   1.552       .  S
C3077      C3083   1.528       .  S
C3077      C3081   1.529       .  S
C3078      H3085   1.083       .  S
C3078      C3079   1.380       .  D
C3079      C3080   1.544       .  S
C3079      C3281   1.509       .  S
C3080      C3084   1.530       .  S
C3080      C3082   1.546       .  S
C3080      H3086   1.104       .  S
C3081      H3087   1.086       .  S
C3081      C3082   1.360       .  D
C3082      C3292   1.464       .  S
C3083      H3088   1.070       .  S
C3083      C3084   1.358       .  D
C3084      C3105   1.492       .  S
O3089      C3104   1.272       .  A
O3089     Al3097   1.943       .  S
C3090      O3100   1.274       .  A
C3090      O3091   1.261       .  A
O3092     Al3093   1.958       .  S
C3094      O3107   1.262       .  A
O3095      C3105   1.271       .  A
O3096      C3109   1.270       .  A
Al3097     O3107   1.917       .  S
O3098      C3105   1.262       .  A
O3099      C3108   1.262       .  A
O3099     Al3106   1.917       .  S
O3100     Al3106   1.955       .  S
O3101      C3108   1.270       .  A
O3102     Al3106   1.773       .  S
O3103      C3104   1.256   1_545  A
C3109      O3110   1.261       .  A
C3111      C3112   1.540       .  S
C3111      C3115   1.541       .  S
C3112      H3119   1.087       .  S
C3113      C3114   1.531       .  S
C3113      C3250   1.484       .  S
C3114      C3118   1.515       .  S
C3114      C3116   1.545       .  S
C3114      H3120   1.107       .  S
C3115      H3121   1.085       .  S
C3116      C3264   1.490       .  S
C3117      H3122   1.069       .  S
C3117      C3118   1.350       .  D
C3118      C3152   1.464       .  S
C3123      C3124   1.537       .  S
C3123      C3127   1.543       .  S
C3124      H3131   1.085       .  S
C3125      C3126   1.557   1_455  S
C3125      C3222   1.485   1_455  S
C3126      C3130   1.542       .  S
C3126      C3128   1.544       .  S
C3126      H3132   1.110       .  S
C3127      H3133   1.087       .  S
C3128      C3239   1.487       .  S
C3129      H3134   1.075       .  S
C3129      C3130   1.355   1_455  D
C3130      C3148   1.484       .  S
C3135      C3136   1.538       .  S
C3135      C3141   1.531       .  S
C3135      C3139   1.548       .  S
C3136      H3143   1.086       .  S
C3136      C3137   1.369       .  D
C3137      C3138   1.550       .  S
C3137      C3208   1.488       .  S
C3138      C3142   1.540       .  S
C3138      C3140   1.545       .  S
C3138      H3144   1.101       .  S
C3139      H3145   1.082       .  S
C3139      C3140   1.373       .  D
C3140      C3197   1.505       .  S
C3141      H3146   1.074       .  S
C3141      C3142   1.358       .  D
C3142      C3163   1.499       .  S
O3147      C3162   1.265       .  A
O3147     Al3155   1.909       .  S
C3148      O3158   1.263       .  A
C3148      O3149   1.264       .  A
O3149     Al3151   1.926       .  S
O3150      C3152   1.262       .  A
O3150     Al3151   1.905       .  S
Al3151     O3159   1.894       .  S
Al3151     O3161   1.932       .  S
Al3151     O3160   1.786       .  S
C3152      O3165   1.263       .  A
O3153      C3163   1.262       .  A
O3153     Al3155   1.919       .  S
O3154      C3167   1.261       .  A
O3154     Al3164   1.927       .  S
Al3155     O3168   1.907       .  S
Al3155     O3165   1.916       .  S
Al3155     O3160   1.779       .  S
O3156      C3163   1.274       .  A
O3156     Al3164   1.964       .  S
O3157      C3166   1.274       .  A
O3157     Al3164   1.953       .  S
O3158     Al3164   1.927       .  S
O3159      C3166   1.259       .  A
O3160     Al3164   1.784       .  S
O3161      C3162   1.264       .  A
C3167      O3168   1.264       .  A
C3169      C3170   1.417       .  A
C3169      C3174   1.407       .  A
C3169      C3351   1.474       .  S
C3170      C3171   1.398       .  A
C3170      C3278   1.494       .  S
C3171      C3172   1.402       .  A
C3171      H3176   1.085       .  S
C3172      C3173   1.414       .  A
C3172      C3225   1.463       .  S
C3173      C3174   1.401       .  A
C3173      C3194   1.497       .  S
C3174      H3175   1.083       .  S
C3177      C3178   1.422       .  A
C3177      C3182   1.406       .  A
C3177      C3320   1.509       .  S
C3178      C3179   1.403       .  A
C3178      C3295   1.481       .  S
C3179      C3180   1.405       .  A
C3179      H3184   1.083       .  S
C3180      C3181   1.427       .  A
C3180      C3267   1.513       .  S
C3181      C3182   1.413       .  A
C3181      C3211   1.487       .  S
C3182      H3183   1.083       .  S
C3185      C3186   1.420       .  A
C3185      C3190   1.407       .  A
C3185      C3309   1.491       .  S
C3186      C3187   1.408       .  A
C3186      C3337   1.508       .  S
C3187      C3188   1.411       .  A
C3187      H3192   1.084       .  S
C3188      C3189   1.424       .  A
C3188      C3253   1.471       .  S
C3189      C3190   1.401       .  A
C3189      C3236   1.525       .  S
C3190      H3191   1.079   1_655  S
C3193      C3194   1.403       .  A
C3193      C3198   1.403       .  A
C3193      H3200   1.084       .  S
C3194      C3195   1.417       .  A
C3195      C3196   1.398       .  A
C3195      N3202   1.432       .  S
C3196      C3197   1.403       .  A
C3196      H3201   1.081       .  S
C3197      C3198   1.418       .  A
C3198      N3199   1.426       .  S
N3199      O3203   1.262       .  A
N3199      O3204   1.262       .  A
N3202      O3206   1.263       .  A
N3202      O3205   1.260       .  A
C3207      C3208   1.403       .  A
C3207      C3212   1.399       .  A
C3207      H3214   1.082       .  S
C3208      C3209   1.410       .  A
C3209      C3210   1.407       .  A
C3209      N3216   1.427       .  S
C3210      C3211   1.407       .  A
C3210      H3215   1.084       .  S
C3211      C3212   1.413       .  A
C3212      N3213   1.434       .  S
N3213      O3217   1.262       .  A
N3213      O3218   1.262       .  A
N3216      O3220   1.262       .  A
N3216      O3219   1.262       .  A
C3221      C3222   1.400       .  A
C3221      C3226   1.385       .  A
C3221      H3228   1.067       .  S
C3222      C3223   1.415       .  A
C3223      C3224   1.405       .  A
C3224      C3225   1.401       .  A
C3224      H3229   1.083       .  S
C3225      C3226   1.397       .  A
C3226      N3227   1.433       .  S
N3227      O3231   1.260       .  A
N3227      O3232   1.261       .  A
N3230      O3234   1.262       .  A
N3230      O3233   1.262       .  A
C3235      C3236   1.414       .  A
C3235      C3240   1.408       .  A
C3235      H3242   1.069       .  S
C3236      C3237   1.427       .  A
C3237      C3238   1.403   1_655  A
C3237      N3244   1.434       .  S
C3238      C3239   1.394   1_455  A
C3238      H3243   1.083       .  S
C3239      C3240   1.402       .  A
C3240      N3241   1.428       .  S
N3241      O3246   1.262       .  A
N3244      O3248   1.263       .  A
N3244      O3247   1.262   1_655  A
C3249      C3250   1.408       .  A
C3249      C3254   1.387       .  A
C3249      H3256   1.081       .  S
C3250      C3251   1.419       .  A
C3251      C3252   1.409       .  A
C3251      N3258   1.444       .  S
C3252      C3253   1.403       .  A
C3252      H3257   1.084       .  S
C3253      C3254   1.398       .  A
C3254      N3255   1.430       .  S
N3255      O3259   1.262       .  A
N3255      O3260   1.262       .  A
N3258      O3262   1.263       .  A
N3258      O3261   1.263       .  A
C3263      C3264   1.394       .  A
C3263      C3268   1.401       .  A
C3264      C3265   1.411       .  A
C3265      C3266   1.402       .  A
C3265      N3272   1.432       .  S
C3266      C3267   1.408       .  A
C3266      H3271   1.079       .  S
C3267      C3268   1.424       .  A
N3269      O3273   1.262       .  A
N3269      O3274   1.263       .  A
N3272      O3276   1.262       .  A
N3272      O3275   1.262       .  A
C3277      C3282   1.406       .  A
C3277      H3284   1.083       .  S
C3278      C3279   1.407       .  A
C3279      C3280   1.403       .  A
C3279      N3286   1.430       .  S
C3280      H3285   1.080       .  S
C3281      C3282   1.420       .  A
C3282      N3283   1.427       .  S
N3283      O3287   1.262       .  A
N3283      O3288   1.262       .  A
N3286      O3290   1.262       .  A
N3286      O3289   1.260       .  A
C3291      C3292   1.394       .  A
C3291      C3296   1.387       .  A
C3291      H3298   1.082       .  S
C3293      C3294   1.404       .  A
C3293      N3300   1.428       .  S
C3294      C3295   1.407       .  A
C3294      H3299   1.084       .  S
C3296      N3297   1.432       .  S
N3297      O3301   1.263       .  A
N3297      O3302   1.262       .  A
N3300      O3304   1.261       .  A
N3300      O3303   1.262       .  A
C3305      C3310   1.404       .  A
C3306      C3307   1.407       .  A
C3307      N3314   1.430       .  S
C3308      C3309   1.402   1_455  A
C3308      H3313   1.082       .  S
C3309      C3310   1.417       .  A
C3310      N3311   1.430       .  S
N3311      O3315   1.262       .  A
N3311      O3316   1.262       .  A
N3314      O3318   1.262       .  A
N3314      O3317   1.261       .  A
C3319      C3320   1.403       .  A
C3319      C3324   1.395       .  A
C3319      H3326   1.079       .  S
C3320      C3321   1.422       .  A
C3321      C3322   1.412       .  A
C3321      N3328   1.429       .  S
C3322      C3323   1.405       .  A
C3322      H3327   1.083       .  S
C3323      C3324   1.410       .  A
C3324      N3325   1.426       .  S
N3325      O3329   1.262       .  A
N3325      O3330   1.260       .  A
N3328      O3332   1.262       .  A
N3328      O3331   1.262       .  A
C3333      C3338   1.406       .  A
C3333      H3340   1.080       .  S
C3334      C3335   1.419       .  A
C3335      C3336   1.406   1_565  A
C3335      N3342   1.429       .  S
C3336      H3341   1.084       .  S
C3337      C3338   1.416       .  A
C3338      N3339   1.440       .  S
N3339      O3343   1.262       .  A
N3339      O3344   1.263       .  A
N3342      O3346   1.262       .  A
N3342      O3345   1.262       .  A
C3347      C3348   1.402       .  A
C3347      C3352   1.393       .  A
C3347      H3354   1.081       .  S
C3348      C3349   1.404       .  A
C3349      C3350   1.399       .  A
C3349      N3356   1.427       .  S
C3350      C3351   1.404       .  A
C3350      H3355   1.084       .  S
C3351      C3352   1.409       .  A
C3352      N3353   1.432       .  S
N3353      O3357   1.262       .  A
N3353      O3358   1.262       .  A
N3356      O3360   1.262       .  A
N3356      O3359   1.262       .  A
C3361      C3362   1.395       .  A
C3361      C3366   1.392       .  A
C3361      H3368   1.083       .  S
C3363      C3364   1.399       .  A
C3363      N3370   1.428       .  S
C3364      C3365   1.410       .  A
C3364      H3369   1.083       .  S
C3366      N3367   1.431       .  S
N3367      O3371   1.262       .  A
N3367      O3372   1.259       .  A
N3370      O3374   1.261       .  A
N3370      O3373   1.262       .  A
C3375      C3380   1.397       .  A
C3375      H3382   1.081       .  S
C3376      C3377   1.422       .  A
C3377      C3378   1.402       .  A
C3377      N3384   1.427       .  S
C3378      H3383   1.084       .  S
C3379      C3380   1.408       .  A
C3380      N3381   1.427       .  S
N3381      O3385   1.257       .  A
N3381      O3386   1.259       .  A
N3384      O3388   1.262       .  A
N3384      O3387   1.262       .  A
C3389      C3394   1.401       .  A
C3389      H3396   1.079       .  S
C3390      C3391   1.423       .  A
C3391      N3398   1.427       .  S
C3392      C3393   1.407       .  A
C3392      H3397   1.083       .  S
C3393      C3394   1.412       .  A
C3394      N3395   1.436       .  S
N3395      O3399   1.261       .  A
N3395      O3400   1.262       .  A
N3398      O3402   1.262       .  A
N3398      O3401   1.262   1_655  A
C3403      C3404   1.402       .  A
C3403      C3408   1.401       .  A
C3403      H3410   1.083       .  S
C3404      C3405   1.405       .  A
C3405      C3406   1.404       .  A
C3405      N3412   1.427       .  S
C3406      C3407   1.408       .  A
C3406      H3411   1.083       .  S
C3407      C3408   1.416       .  A
C3408      N3409   1.430       .  S
N3409      O3413   1.261       .  A
N3409      O3414   1.261       .  A
N3412      O3416   1.262       .  A
N3412      O3415   1.262       .  A
C3417      C3418   1.396       .  A
C3417      C3422   1.392       .  A
C3417      H3424   1.079       .  S
C3419      C3420   1.399       .  A
C3419      N3426   1.427       .  S
C3420      C3421   1.412       .  A
C3420      H3425   1.083       .  S
C3422      N3423   1.438       .  S
N3423      O3427   1.262       .  A
N3423      O3428   1.262       .  A
N3426      O3430   1.262       .  A
N3426      O3429   1.262       .  A
C3431      C3432   1.407       .  A
C3431      C3436   1.399       .  A
C3431      H3438   1.082       .  S
C3432      C3433   1.417       .  A
C3433      C3434   1.404       .  A
C3433      N3440   1.429       .  S
C3434      C3435   1.406       .  A
C3434      H3439   1.082       .  S
C3435      C3436   1.411       .  A
C3436      N3437   1.437       .  S
N3437      O3441   1.262       .  A
N3437      O3442   1.261       .  A
N3440      O3444   1.262       .  A
N3440      O3443   1.262       .  A
C3445      C3446   1.414   1_545  A
C3445      C3450   1.405   1_545  A
C3445      H3452   1.083       .  S
C3446      C3447   1.428       .  A
C3447      C3448   1.399       .  A
C3447      N3454   1.426       .  S
C3448      C3449   1.391       .  A
C3448      H3453   1.085       .  S
C3449      C3450   1.402       .  A
C3450      N3451   1.426   1_565  S
N3451      O3455   1.261   1_545  A
N3451      O3456   1.262       .  A
N3454      O3458   1.254       .  A
N3454      O3457   1.259       .  A
C3459      C3460   1.391   1_545  A
C3459      C3464   1.390       .  A
C3460      C3461   1.402       .  A
C3461      C3462   1.409       .  A
C3461      N3468   1.429       .  S
C3462      C3463   1.416       .  A
C3462      H3467   1.083       .  S
C3463      C3464   1.438   1_565  A
N3465      O3469   1.260       .  A
N3468      O3472   1.260       .  A
N3468      O3471   1.262   1_565  A
C3473      C3474   1.411       .  A
C3473      C3478   1.411       .  A
C3473      H3480   1.082       .  S
C3474      C3475   1.411       .  A
C3475      C3476   1.399       .  A
C3475      N3482   1.430       .  S
C3476      C3477   1.403       .  A
C3476      H3481   1.079       .  S
C3477      C3478   1.410       .  A
C3478      N3479   1.424       .  S
N3479      O3483   1.258       .  A
N3479      O3484   1.262       .  A
N3482      O3486   1.262       .  A
N3482      O3485   1.259       .  A
C3487      C3488   1.406       .  A
C3487      C3492   1.413       .  A
C3487      H3494   1.081       .  S
C3488      C3489   1.410       .  A
C3489      C3490   1.392       .  A
C3489      N3496   1.432       .  S
C3490      C3491   1.400       .  A
C3490      H3495   1.075       .  S
C3491      C3492   1.421       .  A
C3492      N3493   1.443       .  S
N3493      O3497   1.263       .  A
N3493      O3498   1.262       .  A
N3496      O3500   1.260       .  A
N3496      O3499   1.262       .  A
C3501      C3502   1.404       .  A
C3501      C3506   1.405       .  A
C3502      C3503   1.409       .  A
C3503      C3504   1.396       .  A
C3503      N3510   1.422       .  S
C3504      C3505   1.401       .  A
C3504      H3509   1.077       .  S
C3505      C3506   1.422       .  A
N3507      O3511   1.262       .  A
N3507      O3512   1.258       .  A
N3510      O3514   1.257       .  A
N3510      O3513   1.258       .  A
C3515      C3516   1.410       .  A
C3515      C3520   1.411       .  A
C3515      H3522   1.083       .  S
C3516      C3517   1.404       .  A
C3517      C3518   1.376       .  A
C3517      N3524   1.426       .  S
C3518      C3519   1.394       .  A
C3518      H3523   1.085       .  S
C3519      C3520   1.409       .  A
C3520      N3521   1.434       .  S
N3521      O3525   1.262       .  A
N3521      O3526   1.263       .  A
N3524      O3528   1.263       .  A
N3524      O3527   1.262       .  A
C3529      C3530   1.411   1_455  A
C3529      C3534   1.407       .  A
C3530      C3531   1.409       .  A
C3531      C3532   1.393       .  A
C3531      N3538   1.432       .  S
C3532      C3533   1.400       .  A
C3532      H3537   1.083       .  S
C3533      C3534   1.414   1_655  A
N3535      O3539   1.262       .  A
N3535      O3540   1.262       .  A
N3538      O3542   1.262       .  A
N3538      O3541   1.262       .  A
C3543      C3544   1.412       .  A
C3543      C3548   1.402       .  A
C3543      H3550   1.082       .  S
C3544      C3545   1.421       .  A
C3545      C3546   1.412       .  A
C3545      N3552   1.437       .  S
C3546      C3547   1.399       .  A
C3546      H3551   1.083       .  S
C3547      C3548   1.408       .  A
C3548      N3549   1.432       .  S
N3549      O3553   1.261       .  A
N3549      O3554   1.262       .  A
N3552      O3556   1.262       .  A
N3552      O3555   1.263       .  A
C3557      C3558   1.407       .  A
C3557      C3562   1.413       .  A
C3558      C3559   1.409       .  A
C3559      C3560   1.401       .  A
C3559      N3566   1.434       .  S
C3560      C3561   1.409       .  A
C3560      H3565   1.077       .  S
C3561      C3562   1.417       .  A
N3563      O3567   1.262       .  A
N3563      O3568   1.262       .  A
N3566      O3570   1.261       .  A
N3566      O3569   1.261       .  A
C3571      C3572   1.402       .  A
C3571      C3576   1.402       .  A
C3571      H3578   1.083       .  S
C3572      C3573   1.409       .  A
C3573      C3574   1.402       .  A
C3573      N3580   1.425       .  S
C3574      C3575   1.402       .  A
C3574      H3579   1.084       .  S
C3575      C3576   1.419       .  A
C3576      N3577   1.431       .  S
N3577      O3581   1.262       .  A
N3577      O3582   1.261       .  A
N3580      O3584   1.261       .  A
N3580      O3583   1.259       .  A
C3585      C3586   1.404       .  A
C3585      C3590   1.396       .  A
C3585      H3592   1.081       .  S
C3586      C3587   1.421       .  A
C3587      C3588   1.400       .  A
C3588      C3589   1.399       .  A
C3589      C3590   1.411       .  A
C3590      N3591   1.428       .  S
N3591      O3595   1.260       .  A
N3591      O3596   1.261       .  A
N3594      O3598   1.262       .  A
N3594      O3597   1.263       .  A
C3599      C3600   1.394       .  A
C3599      C3604   1.385       .  A
C3599      H3606   1.077       .  S
C3600      C3601   1.407       .  A
C3601      C3602   1.402       .  A
C3601      N3608   1.429       .  S
C3602      C3603   1.407       .  A
C3602      H3607   1.084       .  S
C3603      C3604   1.410       .  A
C3604      N3605   1.430       .  S
N3605      O3609   1.262       .  A
N3605      O3610   1.262       .  A
N3608      O3612   1.261       .  A
N3608      O3611   1.261       .  A
C3613      C3614   1.403       .  A
C3613      C3618   1.416       .  A
C3613      H3620   1.083       .  S
C3614      C3615   1.404       .  A
C3615      C3616   1.401       .  A
C3615      N3622   1.432       .  S
C3616      C3617   1.412       .  A
C3616      H3621   1.081   1_556  S
C3617      C3618   1.421       .  A
C3618      N3619   1.435       .  S
N3619      O3623   1.261       .  A
N3619      O3624   1.263       .  A
N3622      O3626   1.261       .  A
N3622      O3625   1.262       .  A
C3627      C3628   1.417       .  A
C3627      C3632   1.418       .  A
C3628      C3629   1.424       .  A
C3629      C3630   1.396       .  A
C3629      N3636   1.416       .  S
C3630      C3631   1.390       .  A
C3630      H3635   1.086   1_556  S
C3631      C3632   1.412       .  A
N3633      O3637   1.261       .  A
N3633      O3638   1.261       .  A
N3636      O3640   1.261       .  A
N3636      O3639   1.261       .  A
C3641      C3642   1.392       .  A
C3641      C3646   1.392       .  A
C3641      H3648   1.083       .  S
C3642      C3643   1.418       .  A
C3643      C3644   1.408       .  A
C3643      N3650   1.426       .  S
C3644      C3645   1.405       .  A
C3644      H3649   1.083       .  S
C3645      C3646   1.398       .  A
C3646      N3647   1.412       .  S
N3647      O3651   1.254       .  A
N3647      O3652   1.262       .  A
N3650      O3654   1.260       .  A
N3650      O3653   1.262       .  A
C3655      C3656   1.396       .  A
C3655      C3660   1.386       .  A
C3655      H3662   1.081       .  S
C3656      C3657   1.404   1_565  A
C3658      H3663   1.078       .  S
C3659      C3660   1.410       .  A
C3660      N3661   1.434   1_556  S
N3661      O3665   1.262       .  A
N3661      O3666   1.262       .  A
N3664      O3668   1.262       .  A
N3664      O3667   1.262       .  A
C3669      C3670   1.399       .  A
C3669      C3674   1.396       .  A
C3669      H3676   1.078       .  S
C3670      C3671   1.406       .  A
C3671      C3672   1.393       .  A
C3671      N3678   1.432       .  S
C3672      C3673   1.405       .  A
C3672      H3677   1.067       .  S
C3673      C3674   1.415       .  A
N3675      O3679   1.263       .  A
N3675      O3680   1.259       .  A
N3678      O3682   1.261       .  A
N3678      O3681   1.262       .  A
C3683      C3684   1.409       .  A
C3683      C3688   1.407   1_565  A
C3684      C3685   1.418       .  A
C3685      C3686   1.391       .  A
C3685      N3692   1.426       .  S
C3686      C3687   1.392       .  A
C3686      H3691   1.085       .  S
C3687      C3688   1.412   1_565  A
N3689      O3693   1.262       .  A
N3689      O3694   1.262       .  A
N3692      O3696   1.262       .  A
N3692      O3695   1.262       .  A
