geometry optimzed in LAMMPS
_audit_creation_date              2020-11-30 
_audit_creation_method            'lammps2cif' 
_symmetry_space_group_name_H-M    'P1' 
_symmetry_Int_Tables_number       1 
_symmetry_cell_setting            triclinic 
loop_ 
_symmetry_equiv_pos_as_xyz 
  x,y,z 
_cell_length_a                    24.71332885 
_cell_length_b                    24.70132223621485 
_cell_length_c                    44.375391867141104 
_cell_angle_alpha                 90.0287976139349 
_cell_angle_beta                  90.00745165222001 
_cell_angle_gamma                 89.93646656715788 
loop_ 
_atom_site_label 
_atom_site_type_symbol 
_atom_site_fract_x 
_atom_site_fract_y 
_atom_site_fract_z 
_atom_site_charge 
C1          C  0.73203111  0.70611458  0.22700219     0.80500
N2          N  0.75169770  0.72230152  0.25418272    -0.77800
C3          C  0.72994376  0.70358576  0.28025515     0.83000
N4          N  0.68851203  0.66753121  0.27928566    -0.77700
C5          C  0.66834347  0.65083316  0.25231658     0.83000
N6          N  0.68992827  0.67056801  0.22637564    -0.79500
C7          C  0.88340115  0.85099955  0.03023758     0.80500
N8          N  0.86439152  0.82933400  0.00421374    -0.77800
C9          C  0.88064721  0.84905090  0.47709831     0.83000
N10         N  0.91635065  0.89097699  0.47633925    -0.77700
C11         C  0.93581471  0.91272377  0.50233036     0.83000
N12         N  0.91914733  0.89261390  0.02927072    -0.79500
C13         C  0.71618645  0.35838240  0.22062087     0.80500
N14         N  0.73763432  0.33960948  0.24681824    -0.77800
C15         C  0.72068229  0.35964218  0.27379604     0.83000
N16         N  0.68200760  0.39888403  0.27422022    -0.77700
C17         C  0.66007329  0.41763533  0.24816506     0.83000
N18         N  0.67724836  0.39720446  0.22137265    -0.79500
C19         C  0.86390391  0.20526285  0.47020666     0.80500
N20         N  0.90425946  0.16811162  0.47158521    -0.77800
C21         C  0.92192281  0.14950374  0.99866135     0.83000
N22         N  0.89886146  0.16838655  0.02445711    -0.77700
C23         C  0.85779026  0.20523069  0.02335505     0.83000
N24         N  0.84070749  0.22347564  0.49603485    -0.79500
C25         C  0.38008749  0.72423935  0.22331471     0.80500
N26         N  0.41662413  0.68315533  0.22375622    -0.77800
C27         C  0.43333780  0.66158660  0.25029790     0.83000
N28         N  0.41310478  0.68114101  0.27658171    -0.77700
C29         C  0.37664667  0.72240877  0.27647478     0.83000
N30         N  0.36032374  0.74383986  0.24973881    -0.79500
C31         C  0.22386677  0.86391930  0.47337883     0.80500
N32         N  0.24397181  0.84488987  0.49978726    -0.77800
C33         C  0.22674658  0.86543045  0.02653880     0.83000
N34         N  0.18852864  0.90512344  0.02665322    -0.77700
C35         C  0.16770283  0.92407958  0.00036122     0.83000
N36         N  0.18567399  0.90351284  0.47375463    -0.79500
O37         O  0.98524323  0.09121308  0.47496146    -0.72700
O38         O  0.10587602  0.98257897  0.47553217    -0.73600
O39         O  0.99126249  0.97611147  0.47614751    -0.62300
O40         O  0.09986317  0.09777167  0.47470675    -0.70700
O41         O  0.10010494  0.09897023  0.02473544    -0.70200
O42         O  0.99190678  0.97796390  0.02616611    -0.61500
O43         O  0.10665377  0.98375324  0.02555659    -0.74000
O44         O  0.98495437  0.09321607  0.02497302    -0.72800
Cu45       Cu  0.04556312  0.03690645  0.47361630     1.04600
Cu46       Cu  0.04594859  0.03857568  0.02712122     1.04300
C47         C  0.96604764  0.10943117  0.49969617     0.93500
C48         C  0.12497491  0.96560366  0.50054016     0.92700
C49         C  0.97473035  0.95773410  0.50145634     0.84800
C50         C  0.11695476  0.11755621  0.99957950     0.91100
O51         O  0.49049548  0.59887448  0.22534095    -0.72700
O52         O  0.60040133  0.47947208  0.22415293    -0.73600
O53         O  0.48484571  0.48369678  0.22421801    -0.62300
O54         O  0.60553008  0.59453474  0.22593118    -0.70700
O55         O  0.60461080  0.59252651  0.27592858    -0.70200
O56         O  0.48472887  0.48248590  0.27421901    -0.61500
O57         O  0.60044362  0.47756954  0.27416801    -0.74000
O58         O  0.48963668  0.59751299  0.27537085    -0.72800
Cu59       Cu  0.54528905  0.53916059  0.22316788     1.04600
Cu60       Cu  0.54479856  0.53737439  0.27665556     1.04300
C61         C  0.47292674  0.61722086  0.25040826     0.93500
C62         C  0.61826006  0.46007553  0.24889982     0.92700
C63         C  0.46559652  0.46593676  0.24909772     0.84800
C64         C  0.62402287  0.61089274  0.25130089     0.91100
C65         C  0.21336077  0.22193930  0.02595783     0.80500
N66         N  0.17683138  0.18090826  0.02578846    -0.77800
C67         C  0.15631842  0.16213756  0.99939404     0.83000
N68         N  0.17243706  0.18477211  0.47300499    -0.77700
C69         C  0.20890099  0.22598035  0.47288128     0.83000
N70         N  0.22934682  0.24434867  0.99944608    -0.79500
C71         C  0.35791273  0.37289196  0.27607413     0.80500
N72         N  0.39838010  0.41022778  0.27556173    -0.77800
C73         C  0.42101728  0.42614653  0.24906537     0.83000
N74         N  0.40237923  0.40496714  0.22274842    -0.77700
C75         C  0.36175419  0.36777532  0.22290200     0.83000
N76         N  0.34012080  0.35185503  0.24959011    -0.79500
C77         C  0.25517058  0.32375745  0.33488354    -0.05200
C78         C  0.28814325  0.31792412  0.36056452     0.09000
C79         C  0.34353091  0.33090182  0.35885904    -0.02600
C80         C  0.36639570  0.34844696  0.33140206    -0.00800
C81         C  0.33357608  0.35463534  0.30534929    -0.04400
C82         C  0.27749617  0.34221493  0.30743679     0.02600
C83         C  0.26547950  0.29459910  0.38903063     0.09400
C84         C  0.37723646  0.32507986  0.38544693     0.35300
C85         C  0.24210022  0.34854867  0.28157177     0.38700
C86         C  0.26624989  0.23808058  0.39345938    -0.04800
C87         C  0.24705822  0.21566688  0.42064200     0.02400
C88         C  0.22742030  0.24973979  0.44384011    -0.06000
C89         C  0.22626460  0.30645109  0.43924161    -0.00600
C90         C  0.24505786  0.32872589  0.41185702    -0.03200
C91         C  0.28793084  0.20306508  0.37013082     0.36100
C92         C  0.20459273  0.34190109  0.46236948     0.39700
C93         C  0.24945952  0.15753554  0.42507293     0.38800
C94         C  0.24368044  0.38679637  0.40711669     0.35700
C95         C  0.19815037  0.31014630  0.33674651     0.36400
C96         C  0.42439759  0.35701405  0.32986710     0.39700
N97         N  0.25125450  0.11116469  0.42862109    -0.38400
N98         N  0.30543029  0.17529915  0.35151164    -0.40000
N99         N  0.18731135  0.37017735  0.48082127    -0.37700
N100        N  0.24257494  0.43312484  0.40328558    -0.40100
N101        N  0.40388626  0.32046515  0.40673664    -0.39900
N102        N  0.47071223  0.36357347  0.32872547    -0.37500
N103        N  0.21372486  0.35311680  0.26096990    -0.38600
N104        N  0.15271179  0.29920204  0.33828119    -0.40200
C105        C  0.31089915  0.26768512  0.16365500    -0.05200
C106        C  0.29811925  0.30269509  0.13960430     0.09000
C107        C  0.30524531  0.35896313  0.14299326    -0.02600
C108        C  0.32601054  0.38019795  0.17013881    -0.00800
C109        C  0.34018261  0.34521299  0.19413565    -0.04400
C110        C  0.33192439  0.28874217  0.19082249     0.02600
C111        C  0.27642998  0.28050849  0.11065560     0.09400
C112        C  0.29017948  0.39504544  0.11859180     0.35300
C113        C  0.34576320  0.25196039  0.21512121     0.38700
C114        C  0.22009283  0.27711918  0.10604514    -0.04800
C115        C  0.19950761  0.25834795  0.07830491     0.02400
C116        C  0.23523883  0.24224748  0.05505120    -0.04400
C117        C  0.29175531  0.24496497  0.05990136    -0.00600
C118        C  0.31221990  0.26428167  0.08758902    -0.03200
C119        C  0.18336300  0.29329279  0.12990801     0.36100
C120        C  0.32892806  0.22624771  0.03683074     0.39700
C121        C  0.14146556  0.25732995  0.07340070     0.38800
C122        C  0.37016935  0.26754650  0.09246333     0.35700
C123        C  0.30178040  0.20996393  0.16045383     0.36400
C124        C  0.33019099  0.43833645  0.17378899     0.39700
N125        N  0.09518980  0.25656971  0.06942536    -0.38400
N126        N  0.15416392  0.30615188  0.14900505    -0.40000
N127        N  0.35861948  0.21114309  0.01848455    -0.37700
N128        N  0.41636634  0.27022471  0.09645726    -0.40100
N129        N  0.27786186  0.42364715  0.09911137    -0.39900
N130        N  0.33325595  0.48475380  0.17672639    -0.37500
N131        N  0.35655422  0.22260522  0.23453995    -0.38600
N132        N  0.29425854  0.16395847  0.15788400    -0.40200
C133        C  0.32846189  0.81568384  0.08520878    -0.05200
C134        C  0.29468614  0.80682522  0.11028666     0.09000
C135        C  0.23864974  0.81662159  0.10795021    -0.02600
C136        C  0.21622765  0.83481338  0.08051997    -0.00800
C137        C  0.25011415  0.84502364  0.05538827    -0.04400
C138        C  0.30654480  0.83544360  0.05799707     0.02600
C139        C  0.31798194  0.78575206  0.13907684     0.09400
C140        C  0.20405052  0.80755321  0.13387130     0.35300
C141        C  0.34266649  0.84724114  0.03306662     0.38700
C142        C  0.33938063  0.82178305  0.16066854    -0.04800
C143        C  0.36054409  0.80177199  0.18804119     0.02400
C144        C  0.35980657  0.74556851  0.19408818    -0.04400
C145        C  0.33896308  0.70958303  0.17215996    -0.00600
C146        C  0.31838278  0.72962509  0.14472651    -0.03200
C147        C  0.33955894  0.87946725  0.15459290     0.36100
C148        C  0.33706652  0.65193744  0.17814186     0.39700
C149        C  0.38485221  0.83886861  0.20945646     0.38800
C150        C  0.29736028  0.69254334  0.12222919     0.35700
C151        C  0.38587277  0.80398191  0.08745165     0.36400
C152        C  0.15796769  0.84067011  0.07795959     0.39700
N153        N  0.40455190  0.86844357  0.22644793    -0.38400
N154        N  0.33962302  0.92546037  0.14964026    -0.40000
N155        N  0.33567951  0.60597740  0.18303601    -0.37700
N156        N  0.28064887  0.66306320  0.10422520    -0.40100
N157        N  0.17660630  0.80039417  0.15461326    -0.39900
N158        N  0.11147569  0.84507726  0.07592357    -0.37500
N159        N  0.37153881  0.85660830  0.01321323    -0.38600
N160        N  0.43159797  0.79436300  0.08926772    -0.40200
C161        C  0.27643779  0.77108156  0.33614606    -0.05200
C162        C  0.31108343  0.78111372  0.36075614     0.09000
C163        C  0.36716827  0.77211091  0.35777315    -0.02600
C164        C  0.38872134  0.75367069  0.33017069    -0.00800
C165        C  0.35406770  0.74312575  0.30541861    -0.04400
C166        C  0.29766374  0.75175551  0.30865023     0.02600
C167        C  0.28847225  0.80224143  0.38974197     0.09400
C168        C  0.40268798  0.78201612  0.38321292     0.35300
C169        C  0.26097028  0.73910293  0.28411074     0.38700
C170        C  0.26597519  0.76636023  0.41103987    -0.04800
C171        C  0.24468995  0.78642796  0.43837048     0.02400
C172        C  0.24497595  0.84270113  0.44431812    -0.04400
C173        C  0.26706963  0.87857030  0.42276488    -0.00600
C174        C  0.28927068  0.85830101  0.39574150    -0.03200
C175        C  0.26486381  0.70873984  0.40474625     0.36100
C176        C  0.26852648  0.93628869  0.42872671     0.39700
C177        C  0.22135740  0.74919122  0.46003232     0.38800
C178        C  0.31366166  0.89500970  0.37416506     0.35700
C179        C  0.21878347  0.78076144  0.33922988     0.36400
C180        C  0.44685227  0.74735484  0.32708119     0.39700
N181        N  0.20280359  0.71946867  0.47732615    -0.38400
N182        N  0.26390104  0.66281003  0.39961794    -0.40000
N183        N  0.26954962  0.98233910  0.43347413    -0.37700
N184        N  0.33350873  0.92410637  0.35699373    -0.40100
N185        N  0.43095530  0.78989621  0.40353607    -0.39900
N186        N  0.49321353  0.74237560  0.32460420    -0.37500
N187        N  0.23164019  0.72897660  0.26457244    -0.38600
N188        N  0.17283050  0.78855919  0.34179040    -0.40200
C189        C  0.80456590  0.32335768  0.15315900    -0.05200
C190        C  0.76990776  0.28922957  0.13640676     0.09000
C191        C  0.71706553  0.27892797  0.14708213    -0.02600
C192        C  0.69949425  0.30160310  0.17463006    -0.00800
C193        C  0.73427037  0.33552990  0.19138159    -0.04400
C194        C  0.78640651  0.34729771  0.18020945     0.02600
C195        C  0.78863487  0.26635128  0.10683473     0.09400
C196        C  0.68058434  0.24556338  0.12949439     0.35300
C197        C  0.82028544  0.38638958  0.19562555     0.38700
C198        C  0.80358212  0.21141477  0.10431759    -0.04800
C199        C  0.82429806  0.19100252  0.07686154     0.02400
C200        C  0.83219865  0.22593128  0.05182541    -0.04400
C201        C  0.81552450  0.28084187  0.05435436    -0.00600
C202        C  0.79309719  0.30044342  0.08150940    -0.03200
C203        C  0.79790756  0.17590606  0.13015395     0.36100
C204        C  0.82255243  0.31841103  0.02956824     0.39700
C205        C  0.83550148  0.13349861  0.07428559     0.38800
C206        C  0.77459122  0.35614870  0.08354218     0.35700
C207        C  0.85894564  0.33405258  0.14238056     0.36400
C208        C  0.64563432  0.28991368  0.18584723     0.39700
N209        N  0.84413367  0.08757307  0.07225245    -0.38400
N210        N  0.79318794  0.14758422  0.15075085    -0.40000
N211        N  0.82743643  0.34920205  0.01012230    -0.37700
N212        N  0.75971125  0.40048398  0.08523736    -0.40100
N213        N  0.65148833  0.21892699  0.11544443    -0.39900
N214        N  0.60268375  0.28074975  0.19487817    -0.37500
N215        N  0.84716801  0.41830295  0.20746077    -0.38600
N216        N  0.90225114  0.34250709  0.13366451    -0.40200
C217        C  0.79624357  0.21680025  0.39349085    -0.05200
C218        C  0.80725574  0.27130515  0.38599971     0.09000
C219        C  0.83921172  0.30309022  0.40559023    -0.02600
C220        C  0.85932910  0.28074270  0.43261882    -0.00800
C221        C  0.84617475  0.22710754  0.44072639    -0.04400
C222        C  0.81557301  0.19480434  0.42080593     0.02600
C223        C  0.78530834  0.29505622  0.35737601     0.09400
C224        C  0.85106895  0.35894899  0.39801988     0.35300
C225        C  0.80375688  0.13899864  0.42850798     0.38700
C226        C  0.72975059  0.30742940  0.35487183    -0.04800
C227        C  0.70854497  0.32784418  0.32759687     0.02400
C228        C  0.74313985  0.33780961  0.30268328    -0.04400
C229        C  0.79914402  0.32627569  0.30558314    -0.00600
C230        C  0.81985624  0.30442194  0.33263321    -0.03200
C231        C  0.69428883  0.29895340  0.38050452     0.36100
C232        C  0.83630857  0.33797095  0.28117399     0.39700
C233        C  0.65060475  0.33632178  0.32502945     0.38800
C234        C  0.87695363  0.29125236  0.33500936     0.35700
C235        C  0.76480400  0.18345772  0.37306651     0.36400
C236        C  0.89552452  0.31214054  0.45149325     0.39700
N237        N  0.60437040  0.34292065  0.32303272    -0.38400
N238        N  0.66608520  0.29207891  0.40095989    -0.40000
N239        N  0.86678168  0.34689329  0.26203016    -0.37700
N240        N  0.92250908  0.28092400  0.33694338    -0.40100
N241        N  0.86064931  0.40347173  0.39193904    -0.39900
N242        N  0.92499561  0.33690055  0.46634661    -0.37500
N243        N  0.79453627  0.09440493  0.43460345    -0.38600
N244        N  0.73950137  0.15707677  0.35676537    -0.40200
C245        C  0.76333471  0.79641648  0.34609968    -0.05200
C246        C  0.79437748  0.76183203  0.36464642     0.09000
C247        C  0.80313764  0.70762167  0.35573922    -0.02600
C248        C  0.78228376  0.68857315  0.32806315    -0.00800
C249        C  0.75113066  0.72313132  0.30958721    -0.04400
C250        C  0.74105891  0.77687685  0.31891124     0.02600
C251        C  0.81709046  0.78249582  0.39381406     0.09400
C252        C  0.83317004  0.67137447  0.37526439     0.35300
C253        C  0.70637994  0.81162356  0.30097517     0.38700
C254        C  0.78297368  0.78929764  0.41899120    -0.04800
C255        C  0.80342918  0.81126973  0.44605363     0.02400
C256        C  0.85892052  0.82534778  0.44852093    -0.04400
C257        C  0.89345859  0.81647388  0.42347376    -0.00600
C258        C  0.87238586  0.79600813  0.39615329    -0.03200
C259        C  0.72654472  0.77348234  0.41697694     0.36100
C260        C  0.95118276  0.82622905  0.42600284     0.39700
C261        C  0.76647795  0.82058136  0.47092984     0.38800
C262        C  0.90758885  0.78900365  0.37028178     0.35700
C263        C  0.75443187  0.85221622  0.35505317     0.36400
C264        C  0.79394029  0.63379632  0.31822691     0.39700
N265        N  0.73659164  0.82763911  0.49061921    -0.38400
N266        N  0.68158585  0.76076206  0.41534777    -0.40000
N267        N  0.99726905  0.83370239  0.42804175    -0.37700
N268        N  0.93561864  0.78336500  0.34962666    -0.40100
N269        N  0.85699309  0.64251240  0.39095562    -0.39900
N270        N  0.80346943  0.59020683  0.31024598    -0.37500
N271        N  0.67836650  0.83929003  0.28683275    -0.38600
N272        N  0.74741268  0.89669169  0.36228802    -0.40200
C273        C  0.77917342  0.71435315  0.14459489    -0.05200
C274        C  0.80193517  0.76654522  0.14348249     0.09000
C275        C  0.80274612  0.79877524  0.16964835    -0.02600
C276        C  0.77968017  0.77961777  0.19672648    -0.00800
C277        C  0.75667883  0.72685245  0.19821732    -0.04400
C278        C  0.75766660  0.69406119  0.17183417     0.02600
C279        C  0.82349792  0.78850356  0.11440175     0.09400
C280        C  0.82707268  0.85223098  0.16851469     0.35300
C281        C  0.73828546  0.63863667  0.17251702     0.38700
C282        C  0.79218413  0.82545293  0.09750001    -0.04800
C283        C  0.81252815  0.84699329  0.07036926     0.02400
C284        C  0.86357373  0.83043564  0.05950557    -0.04400
C285        C  0.89492350  0.79342966  0.07629897    -0.00600
C286        C  0.87514910  0.77287852  0.10385824    -0.03200
C287        C  0.73872650  0.84082444  0.10796336     0.36100
C288        C  0.94719668  0.77606137  0.06497356     0.39700
C289        C  0.78141553  0.88707662  0.05390847     0.38800
C290        C  0.90788178  0.73575047  0.12142668     0.35700
C291        C  0.77722944  0.68178000  0.11738454     0.36400
C292        C  0.77876908  0.81564719  0.22254536     0.39700
N293        N  0.75678509  0.91938446  0.04091258    -0.38400
N294        N  0.69605131  0.85286196  0.11636839    -0.40000
N295        N  0.98880705  0.76218321  0.05581255    -0.37700
N296        N  0.93401006  0.70612557  0.13545468    -0.40100
N297        N  0.84643413  0.89483276  0.16753699    -0.39900
N298        N  0.77879764  0.84510024  0.24282977    -0.37500
N299        N  0.72296118  0.59437418  0.17289568    -0.38600
N300        N  0.77557078  0.65603466  0.09561075    -0.40200
C301        C  0.73203110  0.70611459  0.72700220     0.80500
N302        N  0.75169769  0.72230151  0.75418271    -0.77800
C303        C  0.72994376  0.70358574  0.78025516     0.83000
N304        N  0.68851202  0.66753121  0.77928564    -0.77700
C305        C  0.66834344  0.65083318  0.75231660     0.83000
N306        N  0.68992825  0.67056804  0.72637563    -0.79500
C307        C  0.88340111  0.85099957  0.53023760     0.80500
N308        N  0.86439147  0.82933404  0.50421371    -0.77800
C309        C  0.88064728  0.84905084  0.97709829     0.83000
N310        N  0.91635072  0.89097694  0.97633928    -0.77700
C311        C  0.93581476  0.91272373  0.00233030     0.83000
N312        N  0.91914731  0.89261392  0.52927069    -0.79500
C313        C  0.71618645  0.35838242  0.72062090     0.80500
N314        N  0.73763429  0.33960948  0.74681825    -0.77800
C315        C  0.72068223  0.35964219  0.77379608     0.83000
N316        N  0.68200755  0.39888404  0.77422021    -0.77700
C317        C  0.66007327  0.41763535  0.74816510     0.83000
N318        N  0.67724838  0.39720448  0.72137263    -0.79500
C319        C  0.86390389  0.20526276  0.97020674     0.80500
N320        N  0.90425943  0.16811159  0.97158515    -0.77800
C321        C  0.92192279  0.14950378  0.49866119     0.83000
N322        N  0.89886140  0.16838657  0.52445717    -0.77700
C323        C  0.85779022  0.20523074  0.52335497     0.83000
N324        N  0.84070748  0.22347559  0.99603481    -0.79500
C325        C  0.38008745  0.72423931  0.72331470     0.80500
N326        N  0.41662408  0.68315529  0.72375619    -0.77800
C327        C  0.43333777  0.66158657  0.75029789     0.83000
N328        N  0.41310480  0.68114099  0.77658168    -0.77700
C329        C  0.37664669  0.72240876  0.77647477     0.83000
N330        N  0.36032374  0.74383984  0.74973879    -0.79500
C331        C  0.22386681  0.86391930  0.97337886     0.80500
N332        N  0.24397185  0.84488984  0.99978723    -0.77800
C333        C  0.22674655  0.86543048  0.52653877     0.83000
N334        N  0.18852860  0.90512346  0.52665325    -0.77700
C335        C  0.16770278  0.92407959  0.50036114     0.83000
N336        N  0.18567404  0.90351283  0.97375460    -0.79500
O337        O  0.98524325  0.09121307  0.97496148    -0.72700
O338        O  0.10587608  0.98257896  0.97553218    -0.73600
O339        O  0.99126254  0.97611145  0.97614751    -0.62300
O340        O  0.09986320  0.09777165  0.97470673    -0.70700
O341        O  0.10010489  0.09897023  0.52473546    -0.70200
O342        O  0.99190674  0.97796393  0.52616611    -0.61500
O343        O  0.10665373  0.98375325  0.52555658    -0.74000
O344        O  0.98495432  0.09321609  0.52497300    -0.72800
Cu345      Cu  0.04556316  0.03690644  0.97361630     1.04600
Cu346      Cu  0.04594855  0.03857569  0.52712122     1.04300
C347        C  0.96604767  0.10943115  0.99969604     0.93500
C348        C  0.12497496  0.96560365  0.00054009     0.92700
C349        C  0.97473039  0.95773407  0.00145640     0.84800
C350        C  0.11695471  0.11755621  0.49957936     0.91100
O351        O  0.49049545  0.59887445  0.72534092    -0.72700
O352        O  0.60040134  0.47947209  0.72415292    -0.73600
O353        O  0.48484572  0.48369676  0.72421797    -0.62300
O354        O  0.60553006  0.59453477  0.72593117    -0.70700
O355        O  0.60461077  0.59252651  0.77592856    -0.70200
O356        O  0.48472885  0.48248589  0.77421897    -0.61500
O357        O  0.60044359  0.47756956  0.77416800    -0.74000
O358        O  0.48963666  0.59751297  0.77537082    -0.72800
Cu359      Cu  0.54528904  0.53916059  0.72316785     1.04600
Cu360      Cu  0.54479854  0.53737439  0.77665554     1.04300
C361        C  0.47292672  0.61722084  0.75040821     0.93500
C362        C  0.61826006  0.46007555  0.74889977     0.92700
C363        C  0.46559652  0.46593674  0.74909774     0.84800
C364        C  0.62402284  0.61089275  0.75130086     0.91100
C365        C  0.21336079  0.22193926  0.52595789     0.80500
N366        N  0.17683136  0.18090821  0.52578840    -0.77800
C367        C  0.15631840  0.16213755  0.49939419     0.83000
N368        N  0.17243711  0.18477209  0.97300505    -0.77700
C369        C  0.20890103  0.22598036  0.97288122     0.83000
N370        N  0.22934680  0.24434865  0.49944602    -0.79500
C371        C  0.35791276  0.37289192  0.77607409     0.80500
N372        N  0.39838012  0.41022774  0.77556173    -0.77800
C373        C  0.42101729  0.42614649  0.74906528     0.83000
N374        N  0.40237923  0.40496712  0.72274842    -0.77700
C375        C  0.36175419  0.36777528  0.72290196     0.83000
N376        N  0.34012082  0.35185499  0.74959011    -0.79500
C377        C  0.25517064  0.32375744  0.83488355    -0.05200
C378        C  0.28814331  0.31792412  0.86056452     0.09000
C379        C  0.34353098  0.33090181  0.85885904    -0.02600
C380        C  0.36639575  0.34844694  0.83140204    -0.00800
C381        C  0.33357614  0.35463532  0.80534929    -0.04400
C382        C  0.27749621  0.34221493  0.80743678     0.02600
C383        C  0.26547958  0.29459910  0.88903063     0.09400
C384        C  0.37723654  0.32507983  0.88544692     0.35300
C385        C  0.24210026  0.34854871  0.78157179     0.38700
C386        C  0.26625006  0.23808060  0.89345942    -0.04800
C387        C  0.24705842  0.21566688  0.92064203     0.02400
C388        C  0.22742037  0.24973981  0.94384015    -0.06000
C389        C  0.22626460  0.30645108  0.93924158    -0.00600
C390        C  0.24505785  0.32872589  0.91185701    -0.03200
C391        C  0.28793112  0.20306509  0.87013087     0.36100
C392        C  0.20459261  0.34190110  0.96236946     0.39700
C393        C  0.24945985  0.15753559  0.92507300     0.38800
C394        C  0.24368033  0.38679635  0.90711665     0.35700
C395        C  0.19815043  0.31014627  0.83674651     0.36400
C396        C  0.42439765  0.35701403  0.82986709     0.39700
N397        N  0.25125497  0.11116472  0.92862120    -0.38400
N398        N  0.30543063  0.17529919  0.85151171    -0.40000
N399        N  0.18731118  0.37017732  0.98082121    -0.37700
N400        N  0.24257477  0.43312483  0.90328552    -0.40100
N401        N  0.40388636  0.32046510  0.90673663    -0.39900
N402        N  0.47071228  0.36357346  0.82872545    -0.37500
N403        N  0.21372487  0.35311689  0.76096991    -0.38600
N404        N  0.15271186  0.29920197  0.83828119    -0.40200
C405        C  0.31089924  0.26768507  0.66365497    -0.05200
C406        C  0.29811929  0.30269507  0.63960427     0.09000
C407        C  0.30524528  0.35896310  0.64299326    -0.02600
C408        C  0.32601047  0.38019793  0.67013881    -0.00800
C409        C  0.34018261  0.34521295  0.69413565    -0.04400
C410        C  0.33192445  0.28874213  0.69082246     0.02600
C411        C  0.27643002  0.28050847  0.61065558     0.09400
C412        C  0.29017942  0.39504543  0.61859179     0.35300
C413        C  0.34576331  0.25196034  0.71512117     0.38700
C414        C  0.22009287  0.27711911  0.60604512    -0.04800
C415        C  0.19950764  0.25834790  0.57830491     0.02400
C416        C  0.23523886  0.24224744  0.55505116    -0.04400
C417        C  0.29175533  0.24496498  0.55990134    -0.00600
C418        C  0.31221994  0.26428166  0.58758898    -0.03200
C419        C  0.18336303  0.29329264  0.62990803     0.36100
C420        C  0.32892810  0.22624774  0.53683068     0.39700
C421        C  0.14146561  0.25732991  0.57340069     0.38800
C422        C  0.37016939  0.26754651  0.59246330     0.35700
C423        C  0.30178058  0.20996389  0.66045377     0.36400
C424        C  0.33019082  0.43833642  0.67378902     0.39700
N425        N  0.09518983  0.25656967  0.56942535    -0.38400
N426        N  0.15416397  0.30615164  0.64900507    -0.40000
N427        N  0.35861950  0.21114317  0.51848450    -0.37700
N428        N  0.41636638  0.27022472  0.59645722    -0.40100
N429        N  0.27786180  0.42364715  0.59911138    -0.39900
N430        N  0.33325570  0.48475378  0.67672645    -0.37500
N431        N  0.35655436  0.22260517  0.73453990    -0.38600
N432        N  0.29425878  0.16395841  0.65788392    -0.40200
C433        C  0.32846185  0.81568383  0.58520877    -0.05200
C434        C  0.29468612  0.80682521  0.61028665     0.09000
C435        C  0.23864970  0.81662159  0.60795021    -0.02600
C436        C  0.21622763  0.83481341  0.58051997    -0.00800
C437        C  0.25011411  0.84502367  0.55538829    -0.04400
C438        C  0.30654478  0.83544361  0.55799706     0.02600
C439        C  0.31798191  0.78575203  0.63907683     0.09400
C440        C  0.20405050  0.80755319  0.63387129     0.35300
C441        C  0.34266645  0.84724115  0.53306663     0.38700
C442        C  0.33938054  0.82178303  0.66066855    -0.04800
C443        C  0.36054401  0.80177196  0.68804119     0.02400
C444        C  0.35980652  0.74556847  0.69408816    -0.04400
C445        C  0.33896309  0.70958299  0.67215993    -0.00600
C446        C  0.31838282  0.72962507  0.64472647    -0.03200
C447        C  0.33955878  0.87946724  0.65459293     0.36100
C448        C  0.33706657  0.65193740  0.67814181     0.39700
C449        C  0.38485211  0.83886858  0.70945646     0.38800
C450        C  0.29736041  0.69254331  0.62222912     0.35700
C451        C  0.38587274  0.80398185  0.58745162     0.36400
C452        C  0.15796766  0.84067017  0.57795961     0.39700
N453        N  0.40455180  0.86844354  0.72644794    -0.38400
N454        N  0.33962280  0.92546037  0.64964031    -0.40000
N455        N  0.33567960  0.60597735  0.68303594    -0.37700
N456        N  0.28064908  0.66306317  0.60422511    -0.40100
N457        N  0.17660628  0.80039411  0.65461326    -0.39900
N458        N  0.11147567  0.84507733  0.57592359    -0.37500
N459        N  0.37153879  0.85660830  0.51321322    -0.38600
N460        N  0.43159792  0.79436289  0.58926769    -0.40200
C461        C  0.27643782  0.77108153  0.83614604    -0.05200
C462        C  0.31108346  0.78111370  0.86075613     0.09000
C463        C  0.36716829  0.77211090  0.85777314    -0.02600
C464        C  0.38872137  0.75367067  0.83017068    -0.00800
C465        C  0.35406773  0.74312574  0.80541859    -0.04400
C466        C  0.29766377  0.75175549  0.80865021     0.02600
C467        C  0.28847228  0.80224141  0.88974196     0.09400
C468        C  0.40268801  0.78201615  0.88321290     0.35300
C469        C  0.26097032  0.73910291  0.78411072     0.38700
C470        C  0.26597526  0.76636022  0.91103987    -0.04800
C471        C  0.24468999  0.78642794  0.93837048     0.02400
C472        C  0.24497598  0.84270112  0.94431810    -0.04400
C473        C  0.26706962  0.87857028  0.92276486    -0.00600
C474        C  0.28927067  0.85830099  0.89574147    -0.03200
C475        C  0.26486395  0.70873980  0.90474627     0.36100
C476        C  0.26852645  0.93628869  0.92872667     0.39700
C477        C  0.22135743  0.74919122  0.96003230     0.38800
C478        C  0.31366161  0.89500968  0.87416502     0.35700
C479        C  0.21878350  0.78076141  0.83922986     0.36400
C480        C  0.44685230  0.74735477  0.82708118     0.39700
N481        N  0.20280358  0.71946866  0.97732614    -0.38400
N482        N  0.26390125  0.66281000  0.89961799    -0.40000
N483        N  0.26954956  0.98233910  0.93347408    -0.37700
N484        N  0.33350866  0.92410635  0.85699367    -0.40100
N485        N  0.43095533  0.78989629  0.90353604    -0.39900
N486        N  0.49321355  0.74237550  0.82460421    -0.37500
N487        N  0.23164024  0.72897657  0.76457242    -0.38600
N488        N  0.17283052  0.78855916  0.84179037    -0.40200
C489        C  0.80456588  0.32335764  0.65315900    -0.05200
C490        C  0.76990771  0.28922958  0.63640676     0.09000
C491        C  0.71706547  0.27892802  0.64708213    -0.02600
C492        C  0.69949421  0.30160316  0.67463006    -0.00800
C493        C  0.73427037  0.33552990  0.69138159    -0.04400
C494        C  0.78640653  0.34729766  0.68020947     0.02600
C495        C  0.78863480  0.26635129  0.60683472     0.09400
C496        C  0.68058427  0.24556344  0.62949440     0.35300
C497        C  0.82028550  0.38638947  0.69562557     0.38700
C498        C  0.80358196  0.21141474  0.60431757    -0.04800
C499        C  0.82429793  0.19100254  0.57686150     0.02400
C500        C  0.83219862  0.22593128  0.55182543    -0.04400
C501        C  0.81552457  0.28084193  0.55435436    -0.00600
C502        C  0.79309723  0.30044344  0.58150942    -0.03200
C503        C  0.79790726  0.17590602  0.63015389     0.36100
C504        C  0.82255262  0.31841108  0.52956830     0.39700
C505        C  0.83550130  0.13349858  0.57428555     0.38800
C506        C  0.77459136  0.35614878  0.58354220     0.35700
C507        C  0.85894562  0.33405251  0.64238056     0.36400
C508        C  0.64563425  0.28991385  0.68584720     0.39700
N509        N  0.84413344  0.08757306  0.57225240    -0.38400
N510        N  0.79318752  0.14758413  0.65075079    -0.40000
N511        N  0.82743676  0.34920216  0.51012236    -0.37700
N512        N  0.75971147  0.40048408  0.58523739    -0.40100
N513        N  0.65148825  0.21892703  0.61544445    -0.39900
N514        N  0.60268364  0.28075000  0.69487813    -0.37500
N515        N  0.84716811  0.41830280  0.70746080    -0.38600
N516        N  0.90225114  0.34250700  0.63366451    -0.40200
C517        C  0.79624346  0.21680022  0.89349087    -0.05200
C518        C  0.80725563  0.27130513  0.88599974     0.09000
C519        C  0.83921161  0.30309019  0.90559025    -0.02600
C520        C  0.85932903  0.28074264  0.93261885    -0.00800
C521        C  0.84617469  0.22710748  0.94072638    -0.04400
C522        C  0.81557295  0.19480429  0.92080595     0.02600
C523        C  0.78530822  0.29505621  0.85737605     0.09400
C524        C  0.85106885  0.35894895  0.89801992     0.35300
C525        C  0.80375680  0.13899859  0.92850798     0.38700
C526        C  0.72975048  0.30742939  0.85487185    -0.04800
C527        C  0.70854487  0.32784420  0.82759690     0.02400
C528        C  0.74313978  0.33780961  0.80268330    -0.04400
C529        C  0.79914393  0.32627568  0.80558318    -0.00600
C530        C  0.81985614  0.30442193  0.83263324    -0.03200
C531        C  0.69428869  0.29895336  0.88050453     0.36100
C532        C  0.83630851  0.33797095  0.78117403     0.39700
C533        C  0.65060467  0.33632185  0.82502947     0.38800
C534        C  0.87695353  0.29125236  0.83500941     0.35700
C535        C  0.76480389  0.18345771  0.87306654     0.36400
C536        C  0.89552443  0.31214047  0.95149327     0.39700
N537        N  0.60437032  0.34292079  0.82303275    -0.38400
N538        N  0.66608506  0.29207884  0.90095989    -0.40000
N539        N  0.86678163  0.34689329  0.76203022    -0.37700
N540        N  0.92250898  0.28092399  0.83694344    -0.40100
N541        N  0.86064922  0.40347170  0.89193909    -0.39900
N542        N  0.92499551  0.33690049  0.96634665    -0.37500
N543        N  0.79453618  0.09440488  0.93460345    -0.38600
N544        N  0.73950125  0.15707677  0.85676538    -0.40200
C545        C  0.76333475  0.79641643  0.84609969    -0.05200
C546        C  0.79437750  0.76183197  0.86464643     0.09000
C547        C  0.80313763  0.70762160  0.85573923    -0.02600
C548        C  0.78228375  0.68857310  0.82806315    -0.00800
C549        C  0.75113067  0.72313129  0.80958721    -0.04400
C550        C  0.74105895  0.77687683  0.81891125     0.02600
C551        C  0.81709049  0.78249574  0.89381406     0.09400
C552        C  0.83316998  0.67137438  0.87526440     0.35300
C553        C  0.70638003  0.81162356  0.80097517     0.38700
C554        C  0.78297373  0.78929754  0.91899123    -0.04800
C555        C  0.80342925  0.81126962  0.94605364     0.02400
C556        C  0.85892057  0.82534772  0.94852095    -0.04400
C557        C  0.89345864  0.81647383  0.92347375    -0.00600
C558        C  0.87238589  0.79600807  0.89615329    -0.03200
C559        C  0.72654477  0.77348222  0.91697697     0.36100
C560        C  0.95118279  0.82622904  0.92600282     0.39700
C561        C  0.76647803  0.82058116  0.97092989     0.38800
C562        C  0.90758887  0.78900360  0.87028177     0.35700
C563        C  0.75443194  0.85221618  0.85505318     0.36400
C564        C  0.79394031  0.63379629  0.81822689     0.39700
N565        N  0.73659176  0.82763884  0.99061926    -0.38400
N566        N  0.68158592  0.76076193  0.91534781    -0.40000
N567        N  0.99726909  0.83370240  0.92804171    -0.37700
N568        N  0.93561864  0.78336495  0.84962665    -0.40100
N569        N  0.85699297  0.64251228  0.89095564    -0.39900
N570        N  0.80346948  0.59020681  0.81024594    -0.37500
N571        N  0.67836663  0.83929007  0.78683274    -0.38600
N572        N  0.74741277  0.89669165  0.86228804    -0.40200
C573        C  0.77917331  0.71435318  0.64459487    -0.05200
C574        C  0.80193510  0.76654524  0.64348247     0.09000
C575        C  0.80274610  0.79877524  0.66964834    -0.02600
C576        C  0.77968019  0.77961776  0.69672648    -0.00800
C577        C  0.75667881  0.72685245  0.69821731    -0.04400
C578        C  0.75766653  0.69406122  0.67183416     0.02600
C579        C  0.82349785  0.78850357  0.61440174     0.09400
C580        C  0.82707268  0.85223098  0.66851468     0.35300
C581        C  0.73828536  0.63863670  0.67251700     0.38700
C582        C  0.79218408  0.82545294  0.59749999    -0.04800
C583        C  0.81252811  0.84699331  0.57036925     0.02400
C584        C  0.86357370  0.83043566  0.55950555    -0.04400
C585        C  0.89492346  0.79342967  0.57629897    -0.00600
C586        C  0.87514904  0.77287852  0.60385822    -0.03200
C587        C  0.73872643  0.84082442  0.60796332     0.36100
C588        C  0.94719663  0.77606137  0.56497356     0.39700
C589        C  0.78141550  0.88707664  0.55390844     0.38800
C590        C  0.90788168  0.73575042  0.62142666     0.35700
C591        C  0.77722927  0.68178007  0.61738451     0.36400
C592        C  0.77876920  0.81564714  0.72254537     0.39700
N593        N  0.75678507  0.91938448  0.54091256    -0.38400
N594        N  0.69605122  0.85286192  0.61636833    -0.40000
N595        N  0.98880701  0.76218321  0.55581255    -0.37700
N596        N  0.93400993  0.70612548  0.63545464    -0.40100
N597        N  0.84643414  0.89483275  0.66753698    -0.39900
N598        N  0.77879784  0.84510017  0.74282980    -0.37500
N599        N  0.72296106  0.59437422  0.67289565    -0.38600
N600        N  0.77557055  0.65603475  0.59561071    -0.40200
loop_ 
_geom_bond_atom_site_label_1 
_geom_bond_atom_site_label_2 
_geom_bond_distance 
_geom_bond_site_symmetry_2 
_ccdc_geom_bond_type 
C1            N2   1.360       .  A
C1            N6   1.362       .  A
C1          C277   1.506       .  S
N2            C3   1.357       .  A
C3            N4   1.358       .  A
C3          C249   1.484       .  S
N4            C5   1.360       .  A
C5            N6   1.360       .  A
C5           C64   1.476       .  S
C7            N8   1.357       .  A
C7           N12   1.357       .  A
C7          C284   1.479       .  S
N8          C309   1.359   1_554  A
C9           N10   1.362       .  A
C9          N308   1.359       .  A
C9          C256   1.496       .  S
N10          C11   1.360       .  A
C11         N312   1.359       .  A
C11          C49   1.471       .  S
N12         C311   1.359       .  A
C13          N14   1.359       .  A
C13          N18   1.358       .  A
C13         C193   1.483       .  S
N14          C15   1.361       .  A
C15          N16   1.361       .  A
C15         C228   1.497       .  S
N16          C17   1.358       .  A
C17          N18   1.359       .  A
C17          C62   1.472       .  S
C19          N20   1.356       .  A
C19          N24   1.358       .  A
C19         C221   1.481       .  S
N20         C321   1.358       .  A
C21          N22   1.361   1_556  A
C21         N320   1.358       .  A
C21         C347   1.473       .  S
N22          C23   1.363       .  A
C23         N324   1.361   1_554  A
C23         C200   1.502       .  S
N24         C323   1.361       .  A
C25          N26   1.358       .  A
C25          N30   1.359       .  A
C25         C144   1.487       .  S
N26          C27   1.357       .  A
C27          N28   1.357       .  A
C27          C61   1.468       .  S
N28          C29   1.360       .  A
C29          N30   1.360       .  A
C29         C165   1.491       .  S
C31          N32   1.357       .  A
C31          N36   1.359       .  A
C31         C172   1.486       .  S
N32         C333   1.359       .  A
C33          N34   1.361       .  A
C33         N332   1.359   1_554  A
C33         C137   1.492       .  S
N34          C35   1.358       .  A
C35         N336   1.360   1_554  A
C35         C348   1.471       .  S
N36         C335   1.360       .  A
O37         Cu45   2.005   1_655  S
O37          C47   1.277       .  A
O38         Cu45   2.006   1_565  S
O38          C48   1.277       .  A
O39         Cu45   2.018   1_665  S
O39          C49   1.279       .  A
O40         Cu45   2.017       .  S
O40         C350   1.279       .  A
O41         Cu46   2.008       .  S
O41          C50   1.277   1_554  A
O42         Cu46   2.008   1_665  S
O42         C349   1.278       .  A
O43         Cu46   2.021   1_565  S
O43         C348   1.280       .  A
O44         Cu46   2.024   1_655  S
O44         C347   1.279   1_554  A
Cu45       Cu346   2.375       .  S
Cu46       Cu345   2.375   1_554  S
C47         C321   1.473       .  S
C47         O344   1.279       .  A
C48         C335   1.471       .  S
C48         O343   1.280       .  A
C49         O342   1.278       .  A
C50          C67   1.470       .  S
C50         O340   1.279       .  A
O51         Cu59   2.004       .  S
O51          C61   1.277       .  A
O52         Cu59   2.007       .  S
O52          C62   1.277       .  A
O53         Cu59   2.029       .  S
O53          C63   1.280       .  A
O54         Cu59   2.026       .  S
O54          C64   1.280       .  A
O55         Cu60   2.012       .  S
O55          C64   1.277       .  A
O56         Cu60   2.014       .  S
O56          C63   1.278       .  A
O57         Cu60   2.020       .  S
O57          C62   1.279       .  A
O58         Cu60   2.016       .  S
O58          C61   1.278       .  A
Cu59        Cu60   2.374       .  S
C63          C73   1.477       .  S
C65          N66   1.358       .  A
C65          N70   1.359   1_554  A
C65         C116   1.487       .  S
N66          C67   1.358   1_554  A
C67         N368   1.358       .  A
N68          C69   1.360       .  A
N68         C367   1.358       .  A
C69         N370   1.360       .  A
C69          C88   1.489       .  S
N70         C369   1.360       .  A
C71          N72   1.361       .  A
C71          N76   1.358       .  A
C71          C81   1.501       .  S
N72          C73   1.361       .  A
C73          N74   1.360       .  A
N74          C75   1.362       .  A
C75          N76   1.358       .  A
C75         C109   1.491       .  S
C77          C78   1.408       .  A
C77          C82   1.413       .  A
C77          C95   1.451       .  S
C78          C83   1.498       .  S
C78          C79   1.408       .  A
C79          C80   1.412       .  A
C79          C84   1.451       .  S
C80          C81   1.420       .  A
C80          C96   1.451       .  S
C81          C82   1.423       .  A
C82          C85   1.451       .  S
C83          C86   1.410       .  A
C83          C90   1.411       .  A
C84         N101   1.157       .  T
C85         N103   1.158       .  T
C86          C87   1.410       .  A
C86          C91   1.451       .  S
C87          C88   1.415       .  A
C87          C93   1.451       .  S
C88          C89   1.416       .  A
C89          C90   1.413       .  A
C89          C92   1.451       .  S
C90          C94   1.450       .  S
C91          N98   1.157       .  T
C92          N99   1.157       .  T
C93          N97   1.157       .  T
C94         N100   1.157       .  T
C95         N104   1.157       .  T
C96         N102   1.157       .  T
C105        C106   1.410       .  A
C105        C110   1.412       .  A
C105        C123   1.451       .  S
C106        C111   1.496       .  S
C106        C107   1.409       .  A
C107        C108   1.410       .  A
C107        C112   1.451       .  S
C108        C109   1.415       .  A
C108        C124   1.449       .  S
C109        C110   1.418       .  A
C110        C113   1.451       .  S
C111        C114   1.410       .  A
C111        C118   1.411       .  A
C112        N129   1.157       .  T
C113        N131   1.157       .  T
C114        C115   1.410       .  A
C114        C119   1.450       .  S
C115        C116   1.415       .  A
C115        C121   1.451       .  S
C116        C117   1.415       .  A
C117        C118   1.412       .  A
C117        C120   1.451       .  S
C118        C122   1.451       .  S
C119        N126   1.157       .  T
C120        N127   1.157       .  T
C121        N125   1.157       .  T
C122        N128   1.157       .  T
C123        N132   1.157       .  T
C124        N130   1.156       .  T
C133        C134   1.409       .  A
C133        C138   1.411       .  A
C133        C151   1.451       .  S
C134        C139   1.495       .  S
C134        C135   1.409       .  A
C135        C136   1.411       .  A
C135        C140   1.451       .  S
C136        C137   1.418       .  A
C136        C152   1.451       .  S
C137        C138   1.419       .  A
C138        C141   1.452       .  S
C139        C142   1.411       .  A
C139        C146   1.409       .  A
C140        N157   1.157       .  T
C141        N159   1.157       .  T
C142        C143   1.412       .  A
C142        C147   1.450       .  S
C143        C144   1.414       .  A
C143        C149   1.450       .  S
C144        C145   1.415       .  A
C145        C146   1.409       .  A
C145        C148   1.449       .  S
C146        C150   1.451       .  S
C147        N154   1.157       .  T
C148        N155   1.157       .  T
C149        N153   1.157       .  T
C150        N156   1.157       .  T
C151        N160   1.157       .  T
C152        N158   1.158       .  T
C161        C162   1.410       .  A
C161        C166   1.411       .  A
C161        C179   1.451       .  S
C162        C167   1.496       .  S
C162        C163   1.410       .  A
C163        C164   1.411       .  A
C163        C168   1.451       .  S
C164        C165   1.417       .  A
C164        C180   1.451       .  S
C165        C166   1.417       .  A
C166        C169   1.451       .  S
C167        C170   1.411       .  A
C167        C174   1.410       .  A
C168        N185   1.157       .  T
C169        N187   1.157       .  T
C170        C171   1.411       .  A
C170        C175   1.451       .  S
C171        C172   1.415       .  A
C171        C177   1.451       .  S
C172        C173   1.414       .  A
C173        C174   1.410       .  A
C173        C176   1.450       .  S
C174        C178   1.451       .  S
C175        N182   1.157       .  T
C176        N183   1.157       .  T
C177        N181   1.157       .  T
C178        N184   1.157       .  T
C179        N188   1.157       .  T
C180        N186   1.157       .  T
C189        C190   1.413       .  A
C189        C194   1.411       .  A
C189        C207   1.451       .  S
C190        C195   1.501       .  S
C190        C191   1.413       .  A
C191        C192   1.413       .  A
C191        C196   1.450       .  S
C192        C193   1.412       .  A
C192        C208   1.451       .  S
C193        C194   1.411       .  A
C194        C197   1.450       .  S
C195        C198   1.410       .  A
C195        C202   1.409       .  A
C196        N213   1.157       .  T
C197        N215   1.157       .  T
C198        C199   1.414       .  A
C198        C203   1.451       .  S
C199        C200   1.421       .  A
C199        C205   1.451       .  S
C200        C201   1.422       .  A
C201        C202   1.412       .  A
C201        C204   1.450       .  S
C202        C206   1.452       .  S
C203        N210   1.157       .  T
C204        N211   1.157       .  T
C205        N209   1.158       .  T
C206        N212   1.157       .  T
C207        N216   1.157       .  T
C208        N214   1.157       .  T
C217        C218   1.414       .  A
C217        C222   1.412       .  A
C217        C235   1.451       .  S
C218        C223   1.501       .  S
C218        C219   1.413       .  A
C219        C220   1.411       .  A
C219        C224   1.450       .  S
C220        C221   1.411       .  A
C220        C236   1.450       .  S
C221        C222   1.411       .  A
C222        C225   1.450       .  S
C223        C226   1.411       .  A
C223        C230   1.410       .  A
C224        N241   1.157       .  T
C225        N243   1.157       .  T
C226        C227   1.412       .  A
C226        C231   1.451       .  S
C227        C228   1.419       .  A
C227        C233   1.451       .  S
C228        C229   1.419       .  A
C229        C230   1.412       .  A
C229        C232   1.450       .  S
C230        C234   1.452       .  S
C231        N238   1.157       .  T
C232        N239   1.157       .  T
C233        N237   1.157       .  T
C234        N240   1.157       .  T
C235        N244   1.157       .  T
C236        N242   1.157       .  T
C245        C246   1.412       .  A
C245        C250   1.411       .  A
C245        C263   1.451       .  S
C246        C251   1.500       .  S
C246        C247   1.412       .  A
C247        C248   1.412       .  A
C247        C252   1.450       .  S
C248        C249   1.412       .  A
C248        C264   1.450       .  S
C249        C250   1.412       .  A
C250        C253   1.450       .  S
C251        C254   1.410       .  A
C251        C258   1.411       .  A
C252        N269   1.157       .  T
C253        N271   1.157       .  T
C254        C255   1.411       .  A
C254        C259   1.451       .  S
C255        C256   1.419       .  A
C255        C261   1.451       .  S
C256        C257   1.418       .  A
C257        C258   1.413       .  A
C257        C260   1.451       .  S
C258        C262   1.451       .  S
C259        N266   1.157       .  T
C260        N267   1.158       .  T
C261        N265   1.157       .  T
C262        N268   1.157       .  T
C263        N272   1.157       .  T
C264        N270   1.157       .  T
C273        C274   1.408       .  A
C273        C278   1.413       .  A
C273        C291   1.451       .  S
C274        C279   1.498       .  S
C274        C275   1.408       .  A
C275        C276   1.412       .  A
C275        C280   1.452       .  S
C276        C277   1.424       .  A
C276        C292   1.451       .  S
C277        C278   1.424       .  A
C278        C281   1.451       .  S
C279        C282   1.412       .  A
C279        C286   1.413       .  A
C280        N297   1.157       .  T
C281        N299   1.158       .  T
C282        C283   1.410       .  A
C282        C287   1.451       .  S
C283        C284   1.411       .  A
C283        C289   1.451       .  S
C284        C285   1.411       .  A
C285        C286   1.412       .  A
C285        C288   1.451       .  S
C286        C290   1.450       .  S
C287        N294   1.157       .  T
C288        N295   1.157       .  T
C289        N293   1.157       .  T
C290        N296   1.157       .  T
C291        N300   1.157       .  T
C292        N298   1.157       .  T
C301        N302   1.360       .  A
C301        N306   1.362       .  A
C301        C577   1.506       .  S
N302        C303   1.357       .  A
C303        N304   1.358       .  A
C303        C549   1.484       .  S
N304        C305   1.360       .  A
C305        N306   1.360       .  A
C305        C364   1.476       .  S
C307        N308   1.357       .  A
C307        N312   1.357       .  A
C307        C584   1.479       .  S
C309        N310   1.362       .  A
C309        C556   1.496       .  S
N310        C311   1.360   1_556  A
C311        C349   1.471       .  S
C313        N314   1.359       .  A
C313        N318   1.358       .  A
C313        C493   1.483       .  S
N314        C315   1.361       .  A
C315        N316   1.361       .  A
C315        C528   1.497       .  S
N316        C317   1.358       .  A
C317        N318   1.359       .  A
C317        C362   1.472       .  S
C319        N320   1.356       .  A
C319        N324   1.358       .  A
C319        C521   1.481       .  S
C321        N322   1.361       .  A
N322        C323   1.363       .  A
C323        C500   1.502       .  S
C325        N326   1.358       .  A
C325        N330   1.359       .  A
C325        C444   1.487       .  S
N326        C327   1.357       .  A
C327        N328   1.357       .  A
C327        C361   1.468       .  S
N328        C329   1.360       .  A
C329        N330   1.360       .  A
C329        C465   1.491       .  S
C331        N332   1.357       .  A
C331        N336   1.359       .  A
C331        C472   1.486       .  S
C333        N334   1.361       .  A
C333        C437   1.492       .  S
N334        C335   1.358       .  A
O337       Cu345   2.005   1_655  S
O337        C347   1.277       .  A
O338       Cu345   2.006   1_565  S
O338        C348   1.277   1_556  A
O339       Cu345   2.018   1_665  S
O339        C349   1.279   1_556  A
O340       Cu345   2.017       .  S
O341       Cu346   2.008       .  S
O341        C350   1.277       .  A
O342       Cu346   2.008   1_665  S
O343       Cu346   2.021   1_565  S
O344       Cu346   2.024   1_655  S
C350        C367   1.470       .  S
O351       Cu359   2.004       .  S
O351        C361   1.277       .  A
O352       Cu359   2.007       .  S
O352        C362   1.277       .  A
O353       Cu359   2.029       .  S
O353        C363   1.280       .  A
O354       Cu359   2.026       .  S
O354        C364   1.280       .  A
O355       Cu360   2.012       .  S
O355        C364   1.277       .  A
O356       Cu360   2.014       .  S
O356        C363   1.278       .  A
O357       Cu360   2.020       .  S
O357        C362   1.279       .  A
O358       Cu360   2.016       .  S
O358        C361   1.278       .  A
Cu359      Cu360   2.374       .  S
C363        C373   1.477       .  S
C365        N366   1.358       .  A
C365        N370   1.359       .  A
C365        C416   1.487       .  S
N366        C367   1.358       .  A
N368        C369   1.360       .  A
C369        C388   1.489       .  S
C371        N372   1.361       .  A
C371        N376   1.358       .  A
C371        C381   1.501       .  S
N372        C373   1.361       .  A
C373        N374   1.360       .  A
N374        C375   1.362       .  A
C375        N376   1.358       .  A
C375        C409   1.491       .  S
C377        C378   1.408       .  A
C377        C382   1.413       .  A
C377        C395   1.451       .  S
C378        C383   1.498       .  S
C378        C379   1.408       .  A
C379        C380   1.412       .  A
C379        C384   1.451       .  S
C380        C381   1.420       .  A
C380        C396   1.451       .  S
C381        C382   1.423       .  A
C382        C385   1.451       .  S
C383        C386   1.410       .  A
C383        C390   1.411       .  A
C384        N401   1.157       .  T
C385        N403   1.158       .  T
C386        C387   1.410       .  A
C386        C391   1.451       .  S
C387        C388   1.415       .  A
C387        C393   1.451       .  S
C388        C389   1.416       .  A
C389        C390   1.413       .  A
C389        C392   1.451       .  S
C390        C394   1.450       .  S
C391        N398   1.157       .  T
C392        N399   1.157       .  T
C393        N397   1.157       .  T
C394        N400   1.157       .  T
C395        N404   1.157       .  T
C396        N402   1.157       .  T
C405        C406   1.410       .  A
C405        C410   1.412       .  A
C405        C423   1.451       .  S
C406        C411   1.496       .  S
C406        C407   1.409       .  A
C407        C408   1.410       .  A
C407        C412   1.451       .  S
C408        C409   1.415       .  A
C408        C424   1.449       .  S
C409        C410   1.418       .  A
C410        C413   1.451       .  S
C411        C414   1.410       .  A
C411        C418   1.411       .  A
C412        N429   1.157       .  T
C413        N431   1.157       .  T
C414        C415   1.410       .  A
C414        C419   1.450       .  S
C415        C416   1.415       .  A
C415        C421   1.451       .  S
C416        C417   1.415       .  A
C417        C418   1.412       .  A
C417        C420   1.451       .  S
C418        C422   1.451       .  S
C419        N426   1.157       .  T
C420        N427   1.157       .  T
C421        N425   1.157       .  T
C422        N428   1.157       .  T
C423        N432   1.157       .  T
C424        N430   1.156       .  T
C433        C434   1.409       .  A
C433        C438   1.411       .  A
C433        C451   1.451       .  S
C434        C439   1.495       .  S
C434        C435   1.409       .  A
C435        C436   1.411       .  A
C435        C440   1.451       .  S
C436        C437   1.418       .  A
C436        C452   1.451       .  S
C437        C438   1.419       .  A
C438        C441   1.452       .  S
C439        C442   1.411       .  A
C439        C446   1.409       .  A
C440        N457   1.157       .  T
C441        N459   1.157       .  T
C442        C443   1.412       .  A
C442        C447   1.450       .  S
C443        C444   1.414       .  A
C443        C449   1.450       .  S
C444        C445   1.415       .  A
C445        C446   1.409       .  A
C445        C448   1.449       .  S
C446        C450   1.451       .  S
C447        N454   1.157       .  T
C448        N455   1.157       .  T
C449        N453   1.157       .  T
C450        N456   1.157       .  T
C451        N460   1.157       .  T
C452        N458   1.158       .  T
C461        C462   1.410       .  A
C461        C466   1.411       .  A
C461        C479   1.451       .  S
C462        C467   1.496       .  S
C462        C463   1.410       .  A
C463        C464   1.411       .  A
C463        C468   1.451       .  S
C464        C465   1.417       .  A
C464        C480   1.451       .  S
C465        C466   1.417       .  A
C466        C469   1.451       .  S
C467        C470   1.411       .  A
C467        C474   1.410       .  A
C468        N485   1.157       .  T
C469        N487   1.157       .  T
C470        C471   1.411       .  A
C470        C475   1.451       .  S
C471        C472   1.415       .  A
C471        C477   1.451       .  S
C472        C473   1.414       .  A
C473        C474   1.410       .  A
C473        C476   1.450       .  S
C474        C478   1.451       .  S
C475        N482   1.157       .  T
C476        N483   1.157       .  T
C477        N481   1.157       .  T
C478        N484   1.157       .  T
C479        N488   1.157       .  T
C480        N486   1.157       .  T
C489        C490   1.413       .  A
C489        C494   1.411       .  A
C489        C507   1.451       .  S
C490        C495   1.501       .  S
C490        C491   1.413       .  A
C491        C492   1.413       .  A
C491        C496   1.450       .  S
C492        C493   1.412       .  A
C492        C508   1.451       .  S
C493        C494   1.411       .  A
C494        C497   1.450       .  S
C495        C498   1.410       .  A
C495        C502   1.409       .  A
C496        N513   1.157       .  T
C497        N515   1.157       .  T
C498        C499   1.414       .  A
C498        C503   1.451       .  S
C499        C500   1.421       .  A
C499        C505   1.451       .  S
C500        C501   1.422       .  A
C501        C502   1.412       .  A
C501        C504   1.450       .  S
C502        C506   1.452       .  S
C503        N510   1.157       .  T
C504        N511   1.157       .  T
C505        N509   1.158       .  T
C506        N512   1.157       .  T
C507        N516   1.157       .  T
C508        N514   1.157       .  T
C517        C518   1.414       .  A
C517        C522   1.412       .  A
C517        C535   1.450       .  S
C518        C523   1.501       .  S
C518        C519   1.413       .  A
C519        C520   1.411       .  A
C519        C524   1.450       .  S
C520        C521   1.411       .  A
C520        C536   1.450       .  S
C521        C522   1.411       .  A
C522        C525   1.450       .  S
C523        C526   1.411       .  A
C523        C530   1.410       .  A
C524        N541   1.157       .  T
C525        N543   1.157       .  T
C526        C527   1.412       .  A
C526        C531   1.451       .  S
C527        C528   1.419       .  A
C527        C533   1.451       .  S
C528        C529   1.419       .  A
C529        C530   1.412       .  A
C529        C532   1.450       .  S
C530        C534   1.452       .  S
C531        N538   1.157       .  T
C532        N539   1.157       .  T
C533        N537   1.157       .  T
C534        N540   1.157       .  T
C535        N544   1.157       .  T
C536        N542   1.157       .  T
C545        C546   1.412       .  A
C545        C550   1.411       .  A
C545        C563   1.451       .  S
C546        C551   1.500       .  S
C546        C547   1.412       .  A
C547        C548   1.412       .  A
C547        C552   1.450       .  S
C548        C549   1.412       .  A
C548        C564   1.450       .  S
C549        C550   1.412       .  A
C550        C553   1.450       .  S
C551        C554   1.410       .  A
C551        C558   1.411       .  A
C552        N569   1.157       .  T
C553        N571   1.157       .  T
C554        C555   1.411       .  A
C554        C559   1.451       .  S
C555        C556   1.419       .  A
C555        C561   1.451       .  S
C556        C557   1.418       .  A
C557        C558   1.413       .  A
C557        C560   1.451       .  S
C558        C562   1.451       .  S
C559        N566   1.157       .  T
C560        N567   1.158       .  T
C561        N565   1.157       .  T
C562        N568   1.157       .  T
C563        N572   1.157       .  T
C564        N570   1.157       .  T
C573        C574   1.408       .  A
C573        C578   1.413       .  A
C573        C591   1.451       .  S
C574        C579   1.498       .  S
C574        C575   1.408       .  A
C575        C576   1.412       .  A
C575        C580   1.452       .  S
C576        C577   1.424       .  A
C576        C592   1.451       .  S
C577        C578   1.424       .  A
C578        C581   1.451       .  S
C579        C582   1.412       .  A
C579        C586   1.413       .  A
C580        N597   1.157       .  T
C581        N599   1.158       .  T
C582        C583   1.410       .  A
C582        C587   1.451       .  S
C583        C584   1.411       .  A
C583        C589   1.451       .  S
C584        C585   1.411       .  A
C585        C586   1.412       .  A
C585        C588   1.451       .  S
C586        C590   1.450       .  S
C587        N594   1.157       .  T
C588        N595   1.157       .  T
C589        N593   1.157       .  T
C590        N596   1.157       .  T
C591        N600   1.157       .  T
C592        N598   1.157       .  T
