geometry optimzed in LAMMPS
_audit_creation_date              2020-11-30 
_audit_creation_method            'lammps2cif' 
_symmetry_space_group_name_H-M    'P1' 
_symmetry_Int_Tables_number       1 
_symmetry_cell_setting            triclinic 
loop_ 
_symmetry_equiv_pos_as_xyz 
  x,y,z 
_cell_length_a                    32.71608652 
_cell_length_b                    32.927122262827965 
_cell_length_c                    32.14106980832097 
_cell_angle_alpha                 89.7391018939607 
_cell_angle_beta                  90.12784186314984 
_cell_angle_gamma                 89.91180082937362 
loop_ 
_atom_site_label 
_atom_site_type_symbol 
_atom_site_fract_x 
_atom_site_fract_y 
_atom_site_fract_z 
_atom_site_charge 
C1          C  0.54024376  0.20046417  0.48716179     0.80000
N2          N  0.56306132  0.21042452  0.01996263    -0.78300
C3          C  0.60216879  0.22400331  0.01669645     0.82500
N4          N  0.61842741  0.22936341  0.97823534    -0.78200
C5          C  0.59561140  0.21756776  0.44383830     0.82600
N6          N  0.55673464  0.20411923  0.44846360    -0.79900
Fe7        Fe  0.79911327  0.20943322  0.18379948     1.65800
Fe8        Fe  0.79102376  0.20628134  0.28827662     1.73200
Fe9        Fe  0.74373247  0.28169374  0.23393643     1.54400
O10         O  0.77743891  0.30781885  0.18578032    -0.81900
O11         O  0.73087180  0.20398702  0.30559972    -0.80200
O12         O  0.82547594  0.26367779  0.16665109    -0.84400
O13         O  0.74743363  0.22410584  0.15022207    -0.79200
O14         O  0.78084766  0.31131168  0.27643842    -0.81000
O15         O  0.78407525  0.14853158  0.26520976    -0.83700
C16         C  0.71258118  0.23967645  0.15689135     0.97000
C17         C  0.80894930  0.29858301  0.16456238     1.04500
O18         O  0.77792081  0.23257982  0.23537522    -1.12700
O19         O  0.85277387  0.20579104  0.27648436    -0.75200
O20         O  0.85452071  0.19152942  0.20921787    -0.78600
O21         O  0.70349671  0.25669133  0.19106547    -0.79300
C22         C  0.87201379  0.19465685  0.24433898     0.95900
O23         O  0.77373384  0.15346720  0.19688701    -0.77300
O24         O  0.79909955  0.26046349  0.31837487    -0.82500
C25         C  0.70301678  0.23071791  0.30480610     0.98600
C26         C  0.79696738  0.29804051  0.30989636     1.04500
O27         O  0.70528472  0.26229488  0.28189842    -0.78100
C28         C  0.77373189  0.13320837  0.23062227     1.02800
C29         C  0.82766822  0.46299904  0.48606897     0.80000
N30         N  0.83381858  0.44199927  0.02303694    -0.78300
C31         C  0.83894229  0.40104215  0.02317140     0.82500
N32         N  0.83808437  0.38131206  0.48580714    -0.78200
C33         C  0.83244725  0.40136092  0.44923438     0.82600
N34         N  0.82718147  0.44217954  0.44966946    -0.79900
C35         C  0.73106493  0.96265806  0.23543696     0.80000
N36         N  0.72730812  0.94197119  0.27204663    -0.78300
C37         C  0.72120123  0.90106949  0.27232233     0.82500
N38         N  0.71940197  0.88109783  0.23546106    -0.78200
C39         C  0.72333505  0.90126772  0.19883234     0.82600
N40         N  0.72945151  0.94188820  0.19913659    -0.79900
Fe41       Fe  0.77516451  0.70859028  0.04117255     1.65800
Fe42       Fe  0.76629246  0.71038961  0.43644293     1.73200
Fe43       Fe  0.81626097  0.78657271  0.48567112     1.54400
O44         O  0.77877469  0.81355453  0.02618838    -0.81900
O45         O  0.81802303  0.72694446  0.40332930    -0.80200
O46         O  0.76376947  0.76315427  0.07022039    -0.84400
O47         O  0.83572313  0.70986776  0.05889966    -0.79200
O48         O  0.78268488  0.80945354  0.43563242    -0.81000
O49         O  0.79357456  0.65565225  0.45050311    -0.83700
C50         C  0.86089526  0.73909113  0.05866948     0.97000
C51         C  0.76393792  0.80054641  0.06025036     1.04500
O52         O  0.78584912  0.73529762  0.48786416    -1.12700
O53         O  0.71167342  0.69084776  0.46211946    -0.75200
O54         O  0.71333235  0.70410047  0.02927295    -0.78600
O55         O  0.85646726  0.76992480  0.03517294    -0.79300
C56         C  0.69427134  0.69272613  0.49734133     0.95900
O57         O  0.78509153  0.65089778  0.01883460    -0.77300
O58         O  0.73716650  0.76264828  0.41760260    -0.82500
C59         C  0.85185036  0.74431138  0.41111570     0.98600
C60         C  0.75225311  0.79791843  0.41400890     1.04500
O61         O  0.85895949  0.76271155  0.44503207    -0.78100
C62         C  0.79423038  0.63519726  0.98407450     1.02800
C63         C  0.02330016  0.70488820  0.24063992     0.80000
N64         N  0.00589468  0.71116406  0.20262119    -0.78300
C65         C  0.96765133  0.72685449  0.19934503     0.82500
N66         N  0.94638376  0.73564603  0.23429903    -0.78200
C67         C  0.96272511  0.72881174  0.27259199     0.82600
N68         N  0.00129403  0.71353380  0.27547081    -0.79900
C69         C  0.33213018  0.88465589  0.26342714     0.80000
N70         N  0.33405178  0.90613867  0.29936289    -0.78300
C71         C  0.33959319  0.94699801  0.29871117     0.82500
N72         N  0.34269271  0.96650941  0.26153726    -0.78200
C73         C  0.34047540  0.94562210  0.22531767     0.82600
N74         N  0.33500535  0.90478869  0.22653810    -0.79900
Fe75       Fe  0.29774992  0.13755898  0.06392112     1.65800
Fe76       Fe  0.29018710  0.14081117  0.45898829     1.73200
Fe77       Fe  0.24493887  0.06405721  0.51261487     1.54400
O78         O  0.28016929  0.03851081  0.06109993    -0.81900
O79         O  0.22992499  0.14159700  0.44076672    -0.80200
O80         O  0.32543526  0.08418001  0.08245135    -0.84400
O81         O  0.24552797  0.12139384  0.09650056    -0.79200
O82         O  0.28334096  0.03595918  0.47066638    -0.81000
O83         O  0.28165842  0.19842197  0.48245527    -0.83700
C84         C  0.21178857  0.10381542  0.08872272     0.97000
C85         C  0.31022706  0.04877329  0.08387721     1.04500
O86         O  0.27737102  0.11409889  0.51178193    -1.12700
O87         O  0.35178160  0.14246850  0.47189398    -0.76800
O88         O  0.35332049  0.15590316  0.03886216    -0.78600
O89         O  0.20452340  0.08609342  0.05450937    -0.79300
C90         C  0.37036040  0.15391931  0.50442834     0.95900
O91         O  0.27141151  0.19335519  0.05059249    -0.77300
O92         O  0.30018217  0.08688200  0.42830395    -0.82500
C93         C  0.20331545  0.11363371  0.44122335     0.98600
C94         C  0.29882198  0.04927409  0.43706703     1.04500
O95         O  0.20659497  0.08243510  0.46444618    -0.78100
C96         C  0.27034043  0.21380572  0.01697529     1.02800
C97         C  0.04104555  0.14138532  0.25777098     0.80000
N98         N  0.06333091  0.13013494  0.22392853    -0.78300
C99         C  0.10208672  0.11565566  0.22830279     0.82500
N100        N  0.11834028  0.11265208  0.26705691    -0.78200
C101        C  0.09668885  0.12387561  0.30093731     0.82600
N102        N  0.05824358  0.13852745  0.29627682    -0.79900
C103        C  0.22902297  0.38485466  0.51472874     0.80000
N104        N  0.22703015  0.40566939  0.05163093    -0.78300
C105        C  0.22277796  0.44659117  0.05243822     0.82500
N106        N  0.21973245  0.46682494  0.51531615    -0.78200
C107        C  0.22142245  0.44703299  0.47838306     0.82600
N108        N  0.22650958  0.40604760  0.47836822    -0.79900
Fe109      Fe  0.26657493  0.63707640  0.31590285     1.65800
Fe110      Fe  0.27268807  0.64015152  0.21116952     1.73200
Fe111      Fe  0.31908481  0.56387949  0.26445123     1.54400
O112        O  0.36159780  0.58875033  0.30496909    -0.81900
O113        O  0.26318070  0.58589151  0.18102854    -0.80200
O114        O  0.31935388  0.62145268  0.34774195    -0.84400
O115        O  0.23994056  0.58333056  0.33375912    -0.79200
O116        O  0.35539544  0.58143180  0.21424486    -0.81000
O117        O  0.21124733  0.64118121  0.22428976    -0.83700
C118        C  0.25656060  0.54856216  0.33648522     0.97000
C119        C  0.35380519  0.60546321  0.33963710     1.04500
O120        O  0.28616209  0.61369825  0.26382967    -1.12700
O121        O  0.28041958  0.69777246  0.23446319    -0.75200
O122        O  0.29216806  0.69283556  0.30245339    -0.78600
O123        O  0.28751324  0.53885085  0.31470513    -0.79300
C124        C  0.29135915  0.71321877  0.26884207     0.95900
O125        O  0.21040036  0.65531355  0.29174514    -0.77300
O126        O  0.33287660  0.64177413  0.19275387    -0.82500
C127        C  0.26342649  0.54843757  0.19058833     0.98600
C128        C  0.35875799  0.61313389  0.19173413     1.04500
O129        O  0.27913718  0.53513679  0.22424296    -0.78100
C130        C  0.19241090  0.65201233  0.25684196     1.02800
C131        C  0.52475358  0.64058842  0.51266197     0.80000
N132        N  0.50309584  0.63183670  0.47748560    -0.78300
C133        C  0.46397082  0.61816900  0.47979674     0.82500
N134        N  0.44676517  0.61312931  0.51781941    -0.78200
C135        C  0.46694072  0.62350661  0.05199375     0.82600
N136        N  0.50592753  0.63737693  0.04955359    -0.79900
C137        C  0.38431055  0.60465577  0.37351778    -0.05600
C138        C  0.42488262  0.61694358  0.36719379    -0.33100
C139        C  0.45205736  0.62024442  0.40105037     0.36200
C140        C  0.43863173  0.61095084  0.44188885    -0.06000
C141        C  0.39860566  0.59627564  0.44717601    -0.33000
C142        C  0.37175802  0.59315586  0.41368587     0.36100
H143        H  0.43502623  0.62552692  0.33632206     0.16500
O144        O  0.49087560  0.63421915  0.39391826    -0.60500
H145        H  0.38734446  0.58794414  0.47769994     0.16500
O146        O  0.33275490  0.57947506  0.42075493    -0.60600
H147        H  0.33367174  0.54992007  0.41495586     0.43500
H148        H  0.50753011  0.60953639  0.38890899     0.43400
C149        C  0.44569086  0.61981157  0.09218219    -0.05600
C150        C  0.43718885  0.65466313  0.11556424    -0.33100
C151        C  0.41025381  0.65278748  0.14944887     0.36200
C152        C  0.39223168  0.61543734  0.16087810    -0.06000
C153        C  0.40293733  0.58022477  0.13892243    -0.33000
C154        C  0.42895174  0.58233659  0.10449894     0.36100
H155        H  0.44955951  0.68376662  0.10607152     0.16500
O156        O  0.40049585  0.68786111  0.17005830    -0.60500
H157        H  0.38910643  0.55133120  0.14685274     0.16500
O158        O  0.43629901  0.54790897  0.08182690    -0.60600
H159        H  0.46197527  0.53648187  0.09344667     0.43500
H160        H  0.41859516  0.68819290  0.19483453     0.43400
C161        C  0.22366283  0.47061186  0.43893438    -0.05600
C162        C  0.24490430  0.45454730  0.40475043    -0.33100
C163        C  0.25386353  0.47869216  0.36993559     0.36200
C164        C  0.24124872  0.51972162  0.36858869    -0.06000
C165        C  0.21718975  0.53467968  0.40135654    -0.33000
C166        C  0.20846129  0.51065204  0.43619950     0.36100
H167        H  0.25664020  0.42377735  0.40584313     0.16500
O168        O  0.27666251  0.46228276  0.33843089    -0.60500
H169        H  0.20674552  0.56591896  0.40115219     0.16500
O170        O  0.18644173  0.52733493  0.46813206    -0.60600
H171        H  0.15752083  0.52072756  0.46187609     0.43500
H172        H  0.25649198  0.45371588  0.31715364     0.43400
C173        C  0.24651559  0.51959691  0.15986941    -0.05600
C174        C  0.26172239  0.47977678  0.15814029    -0.33100
C175        C  0.25233223  0.45460309  0.12447689     0.36200
C176        C  0.22704140  0.46909170  0.09193163    -0.06000
C177        C  0.20933824  0.50773778  0.09538133    -0.33000
C178        C  0.21853306  0.53276056  0.12908109     0.36100
H179        H  0.28304672  0.46893082  0.18153151     0.16500
O180        O  0.27025447  0.41697141  0.12252827    -0.60500
H181        H  0.18927149  0.51916852  0.07112738     0.16500
O182        O  0.20121430  0.57069873  0.13063098    -0.60600
H183        H  0.17743903  0.56784404  0.14950724     0.43500
H184        H  0.29637605  0.42125309  0.10753230     0.43400
C185        C  0.23740392  0.34043266  0.51503639    -0.05600
C186        C  0.24454405  0.32085635  0.05322402    -0.33100
C187        C  0.25528662  0.27970244  0.05456050     0.36200
C188        C  0.25765445  0.25718102  0.01744936    -0.06000
C189        C  0.24803351  0.27610303  0.47961539    -0.33000
C190        C  0.23753574  0.31725193  0.47819052     0.36100
H191        H  0.24353667  0.33732333  0.08229489     0.16500
O192        O  0.26411247  0.26219202  0.09233072    -0.60500
H193        H  0.24806847  0.25918946  0.45077546     0.16500
O194        O  0.22817498  0.33439049  0.44037709    -0.60600
H195        H  0.19831939  0.33035977  0.43691489     0.43500
H196        H  0.29368304  0.26722853  0.09683761     0.43400
C197        C  0.18125075  0.10231985  0.12228403    -0.05600
C198        C  0.19386979  0.08861305  0.16154656    -0.33100
C199        C  0.16759689  0.09019182  0.19568660     0.36200
C200        C  0.12792143  0.10687502  0.19123799    -0.06000
C201        C  0.11449222  0.11815624  0.15106748    -0.33000
C202        C  0.14072549  0.11543465  0.11663803     0.36100
H203        H  0.22461997  0.07698360  0.16590494     0.16500
O204        O  0.18121218  0.07524939  0.23317212    -0.60500
H205        H  0.08410010  0.13046354  0.14642519     0.16500
O206        O  0.12736942  0.12822928  0.07829240    -0.60600
H207        H  0.11418819  0.10410681  0.06571205     0.43500
H208        H  0.19966862  0.09642550  0.24441401     0.43400
C209        C  0.11629729  0.12211707  0.34196273    -0.05600
C210        C  0.12512616  0.08426386  0.35980150    -0.33100
C211        C  0.15060585  0.08127795  0.39470862     0.36200
C212        C  0.16882669  0.11656046  0.41134520    -0.06000
C213        C  0.15784118  0.15467793  0.39472401    -0.33000
C214        C  0.13147006  0.15758661  0.36048736     0.36100
H215        H  0.11363437  0.05678910  0.34551490     0.16500
O216        O  0.16039025  0.04344363  0.40974046    -0.60500
H217        H  0.17120497  0.18220877  0.40707574     0.16500
O218        O  0.12363576  0.19493332  0.34313616    -0.60600
H219        H  0.09732031  0.20373068  0.35546335     0.43500
H220        H  0.13891476  0.03712182  0.43049419     0.43400
C221        C  0.32533834  0.01909161  0.11544607    -0.05600
C222        C  0.30607470  0.98103253  0.11859085    -0.33100
C223        C  0.31259738  0.95566115  0.15297588     0.36200
C224        C  0.33879549  0.96808306  0.18533720    -0.06000
C225        C  0.36029625  0.00471763  0.18098327    -0.33000
C226        C  0.35418035  0.02992381  0.14627095     0.36100
H227        H  0.28389276  0.97165107  0.09549217     0.16500
O228        O  0.29003489  0.92074831  0.15645702    -0.60500
H229        H  0.38096154  0.01454869  0.20532229     0.16500
O230        O  0.37467053  0.06617686  0.14436336    -0.60600
H231        H  0.40006497  0.06025117  0.12871723     0.43500
H232        H  0.30212563  0.90172574  0.13605158     0.43400
C233        C  0.33577220  0.97073592  0.33751997    -0.05600
C234        C  0.31236534  0.95516945  0.37055766    -0.33100
C235        C  0.30147741  0.97970812  0.40421508     0.36200
C236        C  0.31471995  0.02043119  0.40570726    -0.06000
C237        C  0.34067139  0.03494396  0.37415151    -0.33000
C238        C  0.35124997  0.01053095  0.34039561     0.36100
H239        H  0.30017546  0.92463025  0.36916490     0.16500
O240        O  0.27599734  0.96414490  0.43411224    -0.60500
H241        H  0.35186004  0.06589070  0.37487001     0.16500
O242        O  0.37552442  0.02647675  0.30967219    -0.60600
H243        H  0.40396086  0.02047625  0.31858883     0.43500
H244        H  0.24788712  0.96948739  0.42368099     0.43400
C245        C  0.32367338  0.84026736  0.26466706    -0.05600
C246        C  0.31876542  0.82043160  0.30327655    -0.33100
C247        C  0.30887614  0.77908769  0.30549787     0.36200
C248        C  0.30349719  0.75660741  0.26866066    -0.06000
C249        C  0.30920826  0.77623217  0.23021699    -0.33000
C250        C  0.31892168  0.81740409  0.22791907     0.36100
H251        H  0.32206985  0.83703373  0.33209894     0.16500
O252        O  0.30318030  0.76152089  0.34381686    -0.60500
H253        H  0.30581290  0.75972772  0.20133032     0.16500
O254        O  0.32365713  0.83470851  0.18935263    -0.60600
H255        H  0.29550902  0.83823556  0.17837689     0.43500
H256        H  0.33086747  0.75320465  0.35321817     0.43400
C257        C  0.06595468  0.68903475  0.24430240    -0.05600
C258        C  0.08253249  0.68044136  0.28386763    -0.33100
C259        C  0.12306594  0.66726973  0.28854293     0.36200
C260        C  0.14829274  0.66259682  0.25330164    -0.06000
C261        C  0.13137238  0.66986718  0.21374084    -0.33000
C262        C  0.09097593  0.68311709  0.20900879     0.36100
H263        H  0.06417075  0.68418934  0.31158549     0.16500
O264        O  0.13764302  0.65948093  0.32782619    -0.60500
H265        H  0.14986149  0.66637405  0.18605853     0.16500
O266        O  0.07666410  0.69045657  0.16954445    -0.60600
H267        H  0.08508487  0.71870664  0.16299009     0.43500
H268        H  0.13322248  0.62998476  0.33231700     0.43400
C269        C  0.65053645  0.68044007  0.50081567    -0.05600
C270        C  0.63076040  0.68225463  0.03895318    -0.33100
C271        C  0.59009153  0.66957765  0.04348268     0.36200
C272        C  0.56794580  0.65477757  0.50942780    -0.06000
C273        C  0.58742653  0.65436509  0.47048045    -0.33000
C274        C  0.62799163  0.66697699  0.46593679     0.36100
H275        H  0.64678392  0.69335435  0.06614326     0.16500
O276        O  0.57228357  0.67234008  0.08195379    -0.60500
H277        H  0.57132250  0.64390922  0.44307969     0.16500
O278        O  0.64532911  0.66515101  0.42717349    -0.60600
H279        H  0.63880896  0.69161205  0.41384122     0.43500
H280        H  0.58030649  0.64705595  0.09678450     0.43400
C281        C  0.89493770  0.73806720  0.08907969    -0.05600
C282        C  0.91409857  0.70099004  0.09883238    -0.33100
C283        C  0.94089969  0.69785436  0.13279637     0.36200
C284        C  0.94757527  0.73167354  0.15850857    -0.06000
C285        C  0.93015117  0.76919143  0.14763786    -0.33000
C286        C  0.90448486  0.77273130  0.11284061     0.36100
H287        H  0.90711553  0.67404501  0.08095416     0.16500
O288        O  0.95746004  0.66077618  0.14277089    -0.60500
H289        H  0.93521724  0.79548356  0.16713576     0.16500
O290        O  0.88673273  0.80958465  0.10407634    -0.60600
H291        H  0.86128232  0.81023894  0.12077607     0.43500
H292        H  0.98400246  0.65991861  0.12801893     0.43400
C293        C  0.88283086  0.74431730  0.37800210    -0.05600
C294        C  0.92023077  0.72418608  0.38340645    -0.33100
C295        C  0.94728628  0.71961042  0.34983392     0.36200
C296        C  0.93729375  0.73607789  0.31028905    -0.06000
C297        C  0.90055947  0.75803256  0.30599730    -0.33000
C298        C  0.87339703  0.76183680  0.33922068     0.36100
H299        H  0.92764737  0.71043037  0.41317404     0.16500
O300        O  0.98261680  0.69789414  0.35587597    -0.60500
H301        H  0.89219009  0.77165824  0.27643896     0.16500
O302        O  0.83766156  0.78309859  0.33363161    -0.60600
H303        H  0.81819855  0.76340546  0.32138960     0.43500
H304        H  0.97515482  0.66926842  0.35042787     0.43400
C305        C  0.72731045  0.87851062  0.15959649    -0.05600
C306        C  0.75372091  0.89315460  0.12856379    -0.33100
C307        C  0.76404874  0.86906445  0.09446314     0.36200
C308        C  0.74773691  0.82965401  0.09091776    -0.06000
C309        C  0.71896848  0.81626307  0.12035534    -0.33000
C310        C  0.70860973  0.84039294  0.15438138     0.36100
H311        H  0.76854287  0.92235785  0.13199432     0.16500
O312        O  0.79304330  0.88288282  0.06710963    -0.60500
H313        H  0.70553513  0.78630906  0.11781611     0.16500
O314        O  0.68137551  0.82572355  0.18312399    -0.60600
H315        H  0.65481282  0.83841539  0.17570925     0.43500
H316        H  0.77773488  0.89925018  0.04630600     0.43400
C317        C  0.72151751  0.87707379  0.31179493    -0.05600
C318        C  0.71169176  0.83551825  0.31033601    -0.33100
C319        C  0.71895468  0.80989498  0.34435468     0.36200
C320        C  0.73615210  0.82556142  0.38123389    -0.06000
C321        C  0.74300560  0.86757740  0.38395238    -0.33000
C322        C  0.73542111  0.89333376  0.34990863     0.36100
H323        H  0.70013460  0.82213132  0.28192725     0.16500
O324        O  0.71155220  0.76911825  0.34004966    -0.60500
H325        H  0.75581250  0.88037287  0.41210439     0.16500
O326        O  0.74428233  0.93380308  0.35369023    -0.60600
H327        H  0.71892326  0.94632273  0.36463198     0.43500
H328        H  0.73690687  0.75770147  0.32789127     0.43400
C329        C  0.82226807  0.50732785  0.98618923    -0.05600
C330        C  0.80656206  0.52650786  0.44911336    -0.33100
C331        C  0.79843193  0.56815992  0.44788982     0.36200
C332        C  0.80538575  0.59163913  0.98365559    -0.06000
C333        C  0.81787461  0.57271188  0.02086303    -0.33000
C334        C  0.82633631  0.53113024  0.02238379     0.36100
H335        H  0.80101701  0.50896894  0.42124783     0.16500
O336        O  0.78332923  0.58494779  0.41185028    -0.60500
H337        H  0.82097218  0.59018757  0.04917943     0.16500
O338        O  0.83794196  0.51423321  0.05966569    -0.60600
H339        H  0.86816956  0.51645312  0.06030605     0.43500
H340        H  0.75315765  0.58356052  0.41460217     0.43400
C341        C  0.91604629  0.18367804  0.24772120    -0.05600
C342        C  0.93673208  0.16916769  0.21244263    -0.33100
C343        C  0.97735239  0.15597827  0.21483926     0.36200
C344        C  0.99847127  0.15690316  0.25320377    -0.06000
C345        C  0.97808050  0.17235670  0.28825814    -0.33000
C346        C  0.93743764  0.18546247  0.28587672     0.36100
H347        H  0.92121432  0.16729451  0.18270639     0.16500
O348        O  0.99538044  0.14095279  0.17962801    -0.60500
H349        H  0.99345417  0.17398378  0.31808232     0.16500
O350        O  0.91912437  0.19991147  0.32120828    -0.60600
H351        H  0.90891938  0.17547801  0.33605087     0.43500
H352        H  0.00640822  0.16505589  0.16485470     0.43400
C353        C  0.76115511  0.09011269  0.23062533    -0.05600
C354        C  0.74628374  0.07272118  0.26763145    -0.33100
C355        C  0.73597032  0.03158078  0.26979509     0.36200
C356        C  0.74021502  0.00682342  0.23440027    -0.06000
C357        C  0.75441314  0.02454475  0.19712995    -0.33000
C358        C  0.76468893  0.06570517  0.19501742     0.36100
H359        H  0.74263861  0.09110088  0.29526735     0.16500
O360        O  0.72101445  0.01627707  0.30646280    -0.60500
H361        H  0.75838315  0.00635653  0.16943212     0.16500
O362        O  0.78007872  0.08114978  0.15857812    -0.60600
H363        H  0.75579105  0.08764355  0.14123888     0.43500
H364        H  0.74515547  0.01348574  0.32497989     0.43400
C365        C  0.82471387  0.32821021  0.13344382    -0.05600
C366        C  0.84872721  0.31402500  0.10028857    -0.33100
C367        C  0.85580408  0.33828631  0.06516340     0.36200
C368        C  0.83934484  0.37784546  0.06288551    -0.06000
C369        C  0.81912739  0.39354121  0.09785325    -0.33000
C370        C  0.81173780  0.36913978  0.13286518     0.36100
H371        H  0.85995156  0.28305520  0.10018695     0.16500
O372        O  0.87829906  0.32274085  0.03293422    -0.60500
H373        H  0.80676490  0.42408035  0.09719819     0.16500
O374        O  0.78988934  0.38507887  0.16530180    -0.60600
H375        H  0.81069524  0.39643928  0.18446053     0.43500
H376        H  0.85971103  0.30374402  0.01832510     0.43400
C377        C  0.82889230  0.37801937  0.41004811    -0.05600
C378        C  0.84392127  0.33813862  0.40922667    -0.33100
C379        C  0.83621616  0.31280160  0.37553963     0.36200
C380        C  0.81232353  0.32680924  0.34167305    -0.06000
C381        C  0.80001677  0.36770240  0.34085324    -0.33000
C382        C  0.80810448  0.39329342  0.37464811     0.36100
H383        H  0.86095340  0.32595692  0.43541086     0.16500
O384        O  0.85095998  0.27378871  0.37704068    -0.60500
H385        H  0.78224129  0.37941491  0.31496139     0.16500
O386        O  0.79396480  0.43251280  0.37329704    -0.60600
H387        H  0.76554864  0.43116932  0.38390490     0.43500
H388        H  0.87699093  0.27454737  0.36131624     0.43400
C389        C  0.62837571  0.23080002  0.05406352    -0.05600
C390        C  0.66954450  0.24142799  0.04791751    -0.33100
C391        C  0.69655039  0.24499243  0.08126545     0.36200
C392        C  0.68281127  0.23870697  0.12226316    -0.06000
C393        C  0.64137868  0.23004052  0.12910436    -0.33000
C394        C  0.61425134  0.22557540  0.09538050     0.36100
H395        H  0.68151425  0.24633248  0.01691428     0.16500
O396        O  0.73636578  0.25569096  0.07346263    -0.60500
H397        H  0.63032249  0.22533784  0.16050580     0.16500
O398        O  0.57423184  0.21605728  0.10333467    -0.60600
H399        H  0.57373959  0.18607703  0.10643156     0.43500
H400        H  0.74989165  0.23044458  0.06385467     0.43400
C401        C  0.61486490  0.22000089  0.40266823    -0.05600
C402        C  0.63220861  0.18495534  0.38567448    -0.33100
C403        C  0.65871555  0.18759237  0.35165329     0.36200
C404        C  0.66828916  0.22590308  0.33410377    -0.06000
C405        C  0.64822410  0.26058973  0.34932843    -0.33000
C406        C  0.62193843  0.25781776  0.38360327     0.36100
H407        H  0.62709574  0.15571198  0.40036600     0.16500
O408        O  0.67691445  0.15274735  0.33748505    -0.60500
H409        H  0.65504831  0.29031612  0.33656281     0.16500
O410        O  0.60548096  0.29255071  0.39999538    -0.60600
H411        H  0.57891851  0.29613022  0.38550970     0.43500
H412        H  0.66032883  0.14433635  0.31316244     0.43400
C413        C  0.49740882  0.18683889  0.49231474    -0.05600
C414        C  0.48132956  0.17938952  0.02908499    -0.33100
C415        C  0.44045274  0.16774499  0.03426795     0.36200
C416        C  0.41433392  0.16456261  0.50141471    -0.06000
C417        C  0.43765754  0.14972043  0.46808941    -0.33000
C418        C  0.47878463  0.16044198  0.46352074     0.36100
H419        H  0.50041139  0.18189467  0.05652736     0.16500
O420        O  0.42662262  0.15908401  0.07357461    -0.60500
H421        H  0.42402733  0.12953627  0.44544561     0.16500
O422        O  0.50049195  0.14461335  0.43091768    -0.60600
H423        H  0.51425508  0.12011482  0.44238041     0.43500
H424        H  0.42015424  0.18581690  0.08609698     0.43400
C425        C  0.54047974  0.20210655  0.98531481     0.80000
N426        N  0.56328974  0.20979400  0.52116625    -0.78300
C427        C  0.60252423  0.22265304  0.51678473     0.82500
N428        N  0.61821927  0.22651965  0.47788675    -0.78200
C429        C  0.59657564  0.22101496  0.94354716     0.82600
N430        N  0.55778737  0.20702573  0.94711685    -0.79900
Fe431      Fe  0.80045830  0.21019961  0.68328465     1.65800
Fe432      Fe  0.79130280  0.20700784  0.78783504     1.73200
Fe433      Fe  0.74557500  0.28318807  0.73303161     1.54400
O434        O  0.77993520  0.30885794  0.68531957    -0.81900
O435        O  0.73100539  0.20616616  0.80524882    -0.80200
O436        O  0.82751065  0.26420923  0.66628262    -0.84400
O437        O  0.74919440  0.22521942  0.64943971    -0.79200
O438        O  0.78262118  0.31227184  0.77604880    -0.81000
O439        O  0.78285225  0.14950698  0.76471979    -0.83700
C440        C  0.71444870  0.24113776  0.65566962     0.97000
C441        C  0.81139835  0.29930823  0.66424655     1.04500
O442        O  0.77908747  0.23355775  0.73478396    -1.12700
O443        O  0.85316631  0.20477349  0.77635531    -0.75200
O444        O  0.85543069  0.19165434  0.70886220    -0.78600
O445        O  0.70538090  0.25868905  0.68960853    -0.79300
C446        C  0.87253901  0.19378692  0.74421849     0.95900
O447        O  0.77449445  0.15440415  0.69608611    -0.77300
O448        O  0.80064290  0.26112029  0.81779308    -0.82500
C449        C  0.70381143  0.23355948  0.80412282     0.98600
C450        C  0.79861677  0.29875896  0.80949659     1.04500
O451        O  0.70659767  0.26468612  0.78071005    -0.78100
C452        C  0.77321100  0.13427448  0.72988026     1.02800
C453        C  0.82932599  0.46276461  0.98661300     0.80000
N454        N  0.83293519  0.44232551  0.52243503    -0.78300
C455        C  0.83859408  0.40145612  0.52252522     0.82500
N456        N  0.83865943  0.38088869  0.98642632    -0.78200
C457        C  0.83372883  0.40106857  0.94981346     0.82600
N458        N  0.82904738  0.44194299  0.95023210    -0.79900
C459        C  0.73089715  0.96380522  0.73527202     0.80000
N460        N  0.72845550  0.94341744  0.77218297    -0.78300
C461        C  0.72302722  0.90243464  0.77296935     0.82500
N462        N  0.72055745  0.88209536  0.73638623    -0.78200
C463        C  0.72318404  0.90194549  0.69943971     0.82600
N464        N  0.72866395  0.94269064  0.69919084    -0.79900
Fe465      Fe  0.77508306  0.70905659  0.54139278     1.65800
Fe466      Fe  0.76670519  0.71035941  0.93618540     1.73200
Fe467      Fe  0.81832292  0.78534001  0.98559962     1.54400
O468        O  0.77591165  0.81403730  0.52599630    -0.81900
O469        O  0.81835809  0.72650613  0.90292630    -0.80200
O470        O  0.76348192  0.76355145  0.57067263    -0.84400
O471        O  0.83591255  0.71096028  0.55836902    -0.79200
O472        O  0.78501680  0.80897315  0.93578530    -0.81000
O473        O  0.79351366  0.65524364  0.95021298    -0.83700
C474        C  0.86018869  0.74094539  0.55837840     0.97000
C475        C  0.76220527  0.80088493  0.56048431     1.04500
O476        O  0.78668901  0.73475291  0.98772455    -1.12700
O477        O  0.71185328  0.69114722  0.96162556    -0.75200
O478        O  0.71321053  0.70417176  0.52974998    -0.78600
O479        O  0.85457810  0.77197571  0.53539684    -0.79300
C480        C  0.69441742  0.69279985  0.99682704     0.95900
O481        O  0.78509694  0.65131165  0.51909535    -0.77300
O482        O  0.73837450  0.76331531  0.91760562    -0.82500
C483        C  0.85250788  0.74332995  0.91038917     0.98600
C484        C  0.75422633  0.79832404  0.91419007     1.04500
O485        O  0.86041228  0.76085928  0.94461587    -0.78100
C486        C  0.79408069  0.63558575  0.48430966     1.02800
C487        C  0.02484817  0.71009780  0.73928551     0.80000
N488        N  0.00757073  0.71613203  0.70111653    -0.78300
C489        C  0.96883438  0.73066482  0.69768711     0.82500
N490        N  0.94705944  0.73845501  0.73256785    -0.78200
C491        C  0.96329479  0.73187893  0.77093191     0.82600
N492        N  0.00229102  0.71783158  0.77396436    -0.79900
C493        C  0.33180962  0.88516563  0.76239225     0.80000
N494        N  0.33360088  0.90687928  0.79818653    -0.78300
C495        C  0.33945645  0.94771480  0.79731751     0.82500
N496        N  0.34303838  0.96696345  0.76002065    -0.78200
C497        C  0.34100471  0.94578916  0.72393589     0.82600
N498        N  0.33524123  0.90501505  0.72541779    -0.79900
Fe499      Fe  0.29724039  0.13753754  0.56387430     1.65800
Fe500      Fe  0.28918153  0.14107118  0.95879872     1.73200
Fe501      Fe  0.24642143  0.06326326  0.01259025     1.54400
O502        O  0.27890031  0.03889436  0.56090345    -0.81900
O503        O  0.22861467  0.14072619  0.94162406    -0.80200
O504        O  0.32521112  0.08403449  0.58144504    -0.84400
O505        O  0.24561281  0.12087680  0.59675012    -0.79200
O506        O  0.28548040  0.03599232  0.97067703    -0.81000
O507        O  0.27990173  0.19850180  0.98216741    -0.83700
C508        C  0.21151603  0.10384188  0.58954636     0.97000
C509        C  0.30967051  0.04874594  0.58297802     1.04500
O510        O  0.27783871  0.11394611  0.01180060    -1.12700
O511        O  0.35078992  0.14414132  0.97086628    -0.76800
O512        O  0.35242897  0.15701888  0.53925785    -0.78600
O513        O  0.20337936  0.08715142  0.55497257    -0.79300
C514        C  0.37037476  0.15387063  0.00342335     0.95900
O515        O  0.27040152  0.19291468  0.55052596    -0.77300
O516        O  0.29981936  0.08729893  0.92778172    -0.82500
C517        C  0.20297631  0.11189550  0.94195646     0.98600
C518        C  0.29966221  0.04965607  0.93660064     1.04500
O519        O  0.20774405  0.08050243  0.96451768    -0.78100
C520        C  0.27082172  0.21353678  0.51700463     1.02800
C521        C  0.04004490  0.13659852  0.75927338     0.80000
N522        N  0.06324251  0.12647625  0.72565403    -0.78300
C523        C  0.10209222  0.11235730  0.73064918     0.82500
N524        N  0.11731380  0.10838541  0.76973918    -0.78200
C525        C  0.09472775  0.11846232  0.80333668     0.82600
N526        N  0.05635359  0.13299417  0.79808823    -0.79900
C527        C  0.22832997  0.38532439  0.01501137     0.80000
N528        N  0.22732984  0.40532848  0.55126956    -0.78300
C529        C  0.22266609  0.44622478  0.55189899     0.82500
N530        N  0.21985084  0.46739880  0.01601083    -0.78200
C531        C  0.22114131  0.44778149  0.97897132     0.82600
N532        N  0.22581998  0.40672116  0.97874222    -0.79900
Fe533      Fe  0.26740756  0.63751070  0.81588793     1.65800
Fe534      Fe  0.27273344  0.64012202  0.71111677     1.73200
Fe535      Fe  0.31815904  0.56319698  0.76413934     1.54400
O536        O  0.36140451  0.58742969  0.80422826    -0.81900
O537        O  0.26248515  0.58592724  0.68095009    -0.80200
O538        O  0.32024795  0.62099956  0.84743213    -0.84400
O539        O  0.24005783  0.58419069  0.83415232    -0.79200
O540        O  0.35442189  0.58013348  0.71379620    -0.81000
O541        O  0.21139930  0.64207700  0.72457441    -0.83700
C542        C  0.25609544  0.54912322  0.83675511     0.97000
C543        C  0.35433391  0.60441715  0.83890378     1.04500
O544        O  0.28611553  0.61359119  0.76372647    -1.12700
O545        O  0.28106144  0.69771398  0.73430476    -0.75200
O546        O  0.29369762  0.69293113  0.80211965    -0.78600
O547        O  0.28658860  0.53878924  0.81462991    -0.79300
C548        C  0.29227367  0.71331689  0.76852028     0.95900
O549        O  0.21139928  0.65691288  0.79188288    -0.77300
O550        O  0.33290869  0.64094254  0.69259829    -0.82500
C551        C  0.26216531  0.54844613  0.69042537     0.98600
C552        C  0.35835380  0.61191346  0.69153503     1.04500
O553        O  0.27750878  0.53497127  0.72418889    -0.78100
C554        C  0.19312540  0.65405826  0.75704702     1.02800
C555        C  0.52467557  0.64106873  0.01189446     0.80000
N556        N  0.50340266  0.63159240  0.97669320    -0.78300
C557        C  0.46421691  0.61808823  0.97881312     0.82500
N558        N  0.44649559  0.61393523  0.01672451    -0.78200
C559        C  0.46758725  0.62193131  0.55303010     0.82600
N560        N  0.50646307  0.63601974  0.55044939    -0.79900
C561        C  0.38528873  0.60312976  0.87231482    -0.05600
C562        C  0.42496914  0.61811802  0.86635065    -0.33100
C563        C  0.45210652  0.62162928  0.90020941     0.36200
C564        C  0.43947923  0.60997148  0.94069088    -0.06000
C565        C  0.40061773  0.59234025  0.94545057    -0.33000
C566        C  0.37381440  0.58893593  0.91189831     0.36100
H567        H  0.43427786  0.62878853  0.83588024     0.16500
O568        O  0.48984499  0.63847336  0.89358729    -0.60500
H569        H  0.39020026  0.58202551  0.97566156     0.16500
O570        O  0.33577140  0.57259278  0.91838995    -0.60600
H571        H  0.33841566  0.54351107  0.91089903     0.43500
H572        H  0.50796103  0.61527265  0.88677031     0.43400
C573        C  0.44650832  0.61794618  0.59322362    -0.05600
C574        C  0.43853980  0.65265994  0.61699282    -0.33100
C575        C  0.41113475  0.65094905  0.65046038     0.36200
C576        C  0.39209609  0.61389133  0.66104678    -0.06000
C577        C  0.40230852  0.57871539  0.63880680    -0.33000
C578        C  0.42882803  0.58068059  0.60479714     0.36100
H579        H  0.45160780  0.68161746  0.60802283     0.16500
O580        O  0.40191479  0.68593555  0.67146755    -0.60500
H581        H  0.38772768  0.55004412  0.64616318     0.16500
O582        O  0.43567459  0.54641780  0.58170448    -0.60600
H583        H  0.45990665  0.53331309  0.59462753     0.43500
H584        H  0.42027854  0.68589789  0.69604626     0.43400
C585        C  0.22333658  0.47160922  0.93963007    -0.05600
C586        C  0.24306955  0.45508077  0.90474042    -0.33100
C587        C  0.25191150  0.47916064  0.86983117     0.36200
C588        C  0.24074083  0.52061021  0.86912188    -0.06000
C589        C  0.21825671  0.53618982  0.90269889    -0.33000
C590        C  0.20959765  0.51223134  0.93760002     0.36100
H591        H  0.25367024  0.42389871  0.90525182     0.16500
O592        O  0.27311273  0.46218841  0.83749642    -0.60500
H593        H  0.20902972  0.56780087  0.90302645     0.16500
O594        O  0.18911904  0.52952495  0.97024219    -0.60600
H595        H  0.15979673  0.52418302  0.96469453     0.43500
H596        H  0.25196010  0.45407220  0.81703952     0.43400
C597        C  0.24514848  0.51976768  0.65946940    -0.05600
C598        C  0.25850199  0.47923442  0.65902204    -0.33100
C599        C  0.24935244  0.45390662  0.62536389     0.36200
C600        C  0.22625596  0.46899702  0.59140701    -0.06000
C601        C  0.21011002  0.50841073  0.59362120    -0.33000
C602        C  0.21900949  0.53356172  0.62730586     0.36100
H603        H  0.27822580  0.46778145  0.68353883     0.16500
O604        O  0.26528907  0.41535336  0.62502317    -0.60500
H605        H  0.19155272  0.52036336  0.56840564     0.16500
O606        O  0.20329229  0.57221082  0.62748074    -0.60600
H607        H  0.17786229  0.57036918  0.64411777     0.43500
H608        H  0.29250374  0.41802106  0.61175430     0.43400
C609        C  0.23645670  0.34081219  0.01519298    -0.05600
C610        C  0.24712750  0.32094597  0.55290883    -0.33100
C611        C  0.25778698  0.27980281  0.55425649     0.36200
C612        C  0.25840799  0.25687562  0.51736269    -0.06000
C613        C  0.24870114  0.27688064  0.97954199    -0.33000
C614        C  0.23814131  0.31802541  0.97814807     0.36100
H615        H  0.24748208  0.33777192  0.58177611     0.16500
O616        O  0.26842272  0.26271389  0.59175087    -0.60500
H617        H  0.25002947  0.26039328  0.95048180     0.16500
O618        O  0.23043781  0.33558609  0.94015474    -0.60600
H619        H  0.20075772  0.33162120  0.93530511     0.43500
H620        H  0.29829517  0.26718850  0.59439162     0.43400
C621        C  0.18185402  0.10212319  0.62420376    -0.05600
C622        C  0.19725643  0.09727397  0.66464285    -0.33100
C623        C  0.17160478  0.09844252  0.69920383     0.36200
C624        C  0.12915645  0.10529031  0.69404261    -0.06000
C625        C  0.11340096  0.10797108  0.65322040    -0.33000
C626        C  0.13934973  0.10579751  0.61845092     0.36100
H627        H  0.22975444  0.09288522  0.66964941     0.16500
O628        O  0.18882860  0.09334713  0.73784542    -0.60500
H629        H  0.08098598  0.11257225  0.64812800     0.16500
O630        O  0.12310519  0.10958671  0.57926942    -0.60600
H631        H  0.11518107  0.08164191  0.57119866     0.43500
H632        H  0.19982151  0.12038637  0.74542488     0.43400
C633        C  0.11401294  0.11772131  0.84447631    -0.05600
C634        C  0.12263509  0.08041426  0.86354732    -0.33100
C635        C  0.14873057  0.07838148  0.89804217     0.36200
C636        C  0.16781989  0.11403578  0.91284403    -0.06000
C637        C  0.15670079  0.15167981  0.89525593    -0.33000
C638        C  0.12972337  0.15365977  0.86151007     0.36100
H639        H  0.11063150  0.05259209  0.85044826     0.16500
O640        O  0.15811028  0.04099348  0.91446460    -0.60500
H641        H  0.17049299  0.17951882  0.90633180     0.16500
O642        O  0.12188056  0.19048510  0.84301756    -0.60600
H643        H  0.09557851  0.19965151  0.85509061     0.43500
H644        H  0.13730503  0.03619354  0.93632555     0.43400
C645        C  0.32527711  0.01877159  0.61397573    -0.05600
C646        C  0.30550501  0.98103790  0.61764238    -0.33100
C647        C  0.31236699  0.95569328  0.65195568     0.36200
C648        C  0.33934521  0.96787314  0.68375620    -0.06000
C649        C  0.36154646  0.00398606  0.67867956    -0.33000
C650        C  0.35520131  0.02908440  0.64391458     0.36100
H651        H  0.28263255  0.97196773  0.59511363     0.16500
O652        O  0.28934483  0.92114662  0.65602539    -0.60500
H653        H  0.38291986  0.01351852  0.70250648     0.16500
O654        O  0.37657750  0.06477252  0.64110876    -0.60600
H655        H  0.40224459  0.05766026  0.62646918     0.43500
H656        H  0.30072200  0.90189188  0.63542056     0.43400
C657        C  0.33549676  0.97165869  0.83603734    -0.05600
C658        C  0.31194158  0.95618067  0.86900413    -0.33100
C659        C  0.30142182  0.98057671  0.90287541     0.36200
C660        C  0.31517345  0.02110239  0.90474050    -0.06000
C661        C  0.34099056  0.03567553  0.87308358    -0.33000
C662        C  0.35124345  0.01136468  0.83908008     0.36100
H663        H  0.29943081  0.92577880  0.86746344     0.16500
O664        O  0.27572500  0.96510958  0.93263044    -0.60500
H665        H  0.35239586  0.06653805  0.87402038     0.16500
O666        O  0.37560984  0.02727383  0.80841312    -0.60600
H667        H  0.40379986  0.01875086  0.81587422     0.43500
H668        H  0.24769173  0.97097812  0.92227241     0.43400
C669        C  0.32307862  0.84082135  0.76379433    -0.05600
C670        C  0.32044750  0.82061866  0.80243562    -0.33100
C671        C  0.31092644  0.77917026  0.80483211     0.36200
C672        C  0.30378239  0.75691899  0.76813677    -0.06000
C673        C  0.30679864  0.77705533  0.72963933    -0.33000
C674        C  0.31594131  0.81833521  0.72719369     0.36100
H675        H  0.32542446  0.83698208  0.83115656     0.16500
O676        O  0.30742798  0.76124425  0.84325568    -0.60500
H677        H  0.30161559  0.76090254  0.70081712     0.16500
O678        O  0.31749852  0.83616212  0.68860683    -0.60600
H679        H  0.28854430  0.84012508  0.68029266     0.43500
H680        H  0.33570249  0.75355199  0.85127836     0.43400
C681        C  0.06767433  0.69473131  0.74345206    -0.05600
C682        C  0.08496655  0.68944064  0.78330899    -0.33100
C683        C  0.12519294  0.67549852  0.78846235     0.36200
C684        C  0.14941799  0.66648380  0.75337997    -0.06000
C685        C  0.13196279  0.67119759  0.71361658    -0.33000
C686        C  0.09191169  0.68537194  0.70841662     0.36100
H687        H  0.06738053  0.69629494  0.81091228     0.16500
O688        O  0.14046524  0.67130748  0.82802784    -0.60500
H689        H  0.14969407  0.66465815  0.68601297     0.16500
O690        O  0.07700278  0.68973430  0.66873602    -0.60600
H691        H  0.08591084  0.71714810  0.65959005     0.43500
H692        H  0.13379803  0.64305864  0.83641275     0.43400
C693        C  0.65068737  0.68042715  0.00025553    -0.05600
C694        C  0.63104182  0.68110435  0.53977303    -0.33100
C695        C  0.59041608  0.66835132  0.54433832     0.36200
C696        C  0.56799195  0.65496911  0.00877864    -0.06000
C697        C  0.58796921  0.65321480  0.97012917    -0.33000
C698        C  0.62860213  0.66565410  0.96564405     0.36100
H699        H  0.64738834  0.69129012  0.56714428     0.16500
O700        O  0.57302257  0.67000750  0.58307824    -0.60500
H701        H  0.57221227  0.64179745  0.94292832     0.16500
O702        O  0.64650993  0.66222827  0.92727097    -0.60600
H703        H  0.63973909  0.68789292  0.91250237     0.43500
H704        H  0.58123079  0.64433393  0.59707556     0.43400
C705        C  0.89455500  0.74068030  0.58844293    -0.05600
C706        C  0.91578290  0.70441930  0.59692560    -0.33100
C707        C  0.94334977  0.70189680  0.63035544     0.36200
C708        C  0.94868496  0.73541507  0.65682703    -0.06000
C709        C  0.92917379  0.77221616  0.64711021    -0.33000
C710        C  0.90275032  0.77521986  0.61287564     0.36100
H711        H  0.90990072  0.67759705  0.57845784     0.16500
O712        O  0.96199125  0.66551338  0.63910779    -0.60500
H713        H  0.93309934  0.79826708  0.66720999     0.16500
O714        O  0.88292753  0.81128648  0.60537879    -0.60600
H715        H  0.85790102  0.81029997  0.62271736     0.43500
H716        H  0.98863062  0.66670982  0.62453848     0.43400
C717        C  0.88279397  0.74379732  0.87653533    -0.05600
C718        C  0.92221856  0.72811083  0.88245446    -0.33100
C719        C  0.94929028  0.72455331  0.84875408     0.36200
C720        C  0.93730112  0.73781969  0.80851810    -0.06000
C721        C  0.89831623  0.75535564  0.80357838    -0.33000
C722        C  0.87117016  0.75798274  0.83691502     0.36100
H723        H  0.93143409  0.71704870  0.91286411     0.16500
O724        O  0.98687716  0.70724201  0.85552656    -0.60500
H725        H  0.88822191  0.76646768  0.77348866     0.16500
O726        O  0.83340050  0.77522976  0.83066818    -0.60600
H727        H  0.81620686  0.75331527  0.81887670     0.43500
H728        H  0.98259500  0.67767935  0.85207781     0.43400
C729        C  0.72609407  0.87877562  0.66026847    -0.05600
C730        C  0.74922660  0.89452009  0.62712425    -0.33100
C731        C  0.75906086  0.87039291  0.59286389     0.36200
C732        C  0.74571925  0.82973625  0.59136881    -0.06000
C733        C  0.71978566  0.81516931  0.62289155    -0.33000
C734        C  0.70978777  0.83935201  0.65697690     0.36100
H735        H  0.76197618  0.92481661  0.62884130     0.16500
O736        O  0.78475648  0.88577926  0.56307189    -0.60500
H737        H  0.70839230  0.78430053  0.62194124     0.16500
O738        O  0.68541408  0.82346551  0.68765253    -0.60600
H739        H  0.65766038  0.83423889  0.68177028     0.43500
H740        H  0.76662576  0.89980174  0.54282969     0.43400
C741        C  0.72414534  0.87882060  0.81260548    -0.05600
C742        C  0.71032315  0.83839631  0.81258658    -0.33100
C743        C  0.71745453  0.81253282  0.84648810     0.36200
C744        C  0.73860756  0.82686173  0.88181968    -0.06000
C745        C  0.74976980  0.86808372  0.88312151    -0.33000
C746        C  0.74249524  0.89402995  0.84915093     0.36100
H747        H  0.69545679  0.82600417  0.78530429     0.16500
O748        O  0.70568614  0.77267530  0.84349881    -0.60500
H749        H  0.76583153  0.87996769  0.90993984     0.16500
O750        O  0.75626216  0.93327162  0.85108769    -0.60600
H751        H  0.73414569  0.94853234  0.86517129     0.43500
H752        H  0.72866729  0.75872543  0.82939456     0.43400
C753        C  0.82054574  0.50751834  0.48581150    -0.05600
C754        C  0.81029887  0.52648397  0.94883443    -0.33100
C755        C  0.80166947  0.56803587  0.94740817     0.36200
C756        C  0.80463871  0.59195141  0.48366115    -0.06000
C757        C  0.81886438  0.57315310  0.52024271    -0.33000
C758        C  0.82691304  0.53149434  0.52155212     0.36100
H759        H  0.80664087  0.50913665  0.92052942     0.16500
O760        O  0.78855963  0.58487947  0.91060480    -0.60500
H761        H  0.82376977  0.59083014  0.54816486     0.16500
O762        O  0.84062196  0.51472393  0.55814933    -0.60600
H763        H  0.87085061  0.51655958  0.55680061     0.43500
H764        H  0.75832467  0.58259884  0.91120181     0.43400
C765        C  0.91623707  0.18166769  0.74786395    -0.05600
C766        C  0.93619816  0.16472635  0.71326410    -0.33100
C767        C  0.97642759  0.15043079  0.71611103     0.36200
C768        C  0.99781571  0.15273599  0.75420313    -0.06000
C769        C  0.97815253  0.17048299  0.78853711    -0.33000
C770        C  0.93792619  0.18468561  0.78572730     0.36100
H771        H  0.92036078  0.16171287  0.68380833     0.16500
O772        O  0.99372598  0.13281584  0.68179287    -0.60500
H773        H  0.99385035  0.17326270  0.81809217     0.16500
O774        O  0.92038253  0.20164738  0.82027570    -0.60600
H775        H  0.90975806  0.17839204  0.83671581     0.43500
H776        H  0.00500967  0.15569927  0.66527994     0.43400
C777        C  0.76004455  0.09136176  0.72964961    -0.05600
C778        C  0.74328451  0.07450655  0.76606797    -0.33100
C779        C  0.73304063  0.03335005  0.76834329     0.36200
C780        C  0.73936927  0.00805771  0.73369787    -0.06000
C781        C  0.75507152  0.02529057  0.69683879    -0.33000
C782        C  0.76521840  0.06649117  0.69458187     0.36100
H783        H  0.73821197  0.09330393  0.79317047     0.16500
O784        O  0.71601452  0.01851992  0.80427718    -0.60500
H785        H  0.76049139  0.00663174  0.66972887     0.16500
O786        O  0.78222380  0.08149413  0.65870655    -0.60600
H787        H  0.75870320  0.08839828  0.64045544     0.43500
H788        H  0.73899567  0.01623041  0.82432042     0.43400
C789        C  0.82732586  0.32882564  0.63318818    -0.05600
C790        C  0.85002529  0.31433336  0.59926708    -0.33100
C791        C  0.85623523  0.33852601  0.56393738     0.36200
C792        C  0.84019189  0.37829922  0.56223694    -0.06000
C793        C  0.82160470  0.39431129  0.59798425    -0.33000
C794        C  0.81515335  0.36999306  0.63323327     0.36100
H795        H  0.86064510  0.28316031  0.59871243     0.16500
O796        O  0.87733628  0.32264792  0.53091559    -0.60500
H797        H  0.80973303  0.42504450  0.59784492     0.16500
O798        O  0.79487542  0.38623712  0.66655771    -0.60600
H799        H  0.81665011  0.39651608  0.68524972     0.43500
H800        H  0.85803904  0.30374392  0.51714804     0.43400
C801        C  0.83003170  0.37794115  0.91052114    -0.05600
C802        C  0.84566130  0.33831978  0.90909415    -0.33100
C803        C  0.83812703  0.31328830  0.87508330     0.36200
C804        C  0.81381122  0.32734665  0.84154748    -0.06000
C805        C  0.80065388  0.36797921  0.84147897    -0.33000
C806        C  0.80852241  0.39323990  0.87557734     0.36100
H807        H  0.86308791  0.32614445  0.93501634     0.16500
O808        O  0.85348919  0.27450028  0.87589822    -0.60500
H809        H  0.78234031  0.37967590  0.81596983     0.16500
O810        O  0.79334828  0.43209544  0.87504294    -0.60600
H811        H  0.76528059  0.42991655  0.88644299     0.43500
H812        H  0.87994487  0.27612673  0.86099367     0.43400
C813        C  0.62945337  0.22999083  0.55349621    -0.05600
C814        C  0.67131248  0.23668266  0.54657189    -0.33100
C815        C  0.69866147  0.24096234  0.57954877     0.36200
C816        C  0.68464142  0.23933682  0.62097294    -0.06000
C817        C  0.64266422  0.23437212  0.62834509    -0.33000
C818        C  0.61514945  0.22922156  0.59505103     0.36100
H819        H  0.68349877  0.23789733  0.51528822     0.16500
O820        O  0.73914529  0.24779120  0.57080498    -0.60500
H821        H  0.63132807  0.23319619  0.65997164     0.16500
O822        O  0.57450175  0.22368533  0.60364220    -0.60600
H823        H  0.57162086  0.19426516  0.60969994     0.43500
H824        H  0.75053996  0.22083838  0.56341325     0.43400
C825        C  0.61646749  0.22479122  0.90274408    -0.05600
C826        C  0.62853692  0.18962677  0.88168164    -0.33100
C827        C  0.65506304  0.19209651  0.84760426     0.36200
C828        C  0.66935493  0.23028891  0.83375989    -0.06000
C829        C  0.65473215  0.26560055  0.85315072    -0.33000
C830        C  0.62891241  0.26298170  0.88775713     0.36100
H831        H  0.61942354  0.16004390  0.89327036     0.16500
O832        O  0.66854979  0.15688750  0.82953584    -0.60500
H833        H  0.66562103  0.29519577  0.84336599     0.16500
O834        O  0.61793897  0.29776891  0.90823498    -0.60600
H835        H  0.59148651  0.30603778  0.89566432     0.43500
H836        H  0.65049284  0.15282031  0.80510353     0.43400
C837        C  0.49736875  0.18795469  0.98939520    -0.05600
C838        C  0.47442170  0.20098954  0.52612680    -0.33100
C839        C  0.43325271  0.19037682  0.53067094     0.36200
C840        C  0.41445538  0.16422139  0.99936515    -0.06000
C841        C  0.43071512  0.17183456  0.95965210    -0.33000
C842        C  0.47150184  0.18342978  0.95442381     0.36100
H843        H  0.48806661  0.22136613  0.54858102     0.16500
O844        O  0.41165854  0.20631671  0.56330122    -0.60500
H845        H  0.41155083  0.16949320  0.93223634     0.16500
O846        O  0.48511322  0.19143109  0.91490713    -0.60600
H847        H  0.49365407  0.16472049  0.90367566     0.43500
H848        H  0.39952115  0.23188641  0.55239312     0.43400
loop_ 
_geom_bond_atom_site_label_1 
_geom_bond_atom_site_label_2 
_geom_bond_distance 
_geom_bond_site_symmetry_2 
_ccdc_geom_bond_type 
C1            N6   1.362       .  A
C1          N426   1.363       .  A
C1          C413   1.482       .  S
N2            C3   1.360       .  A
N2          C425   1.364   1_554  A
C3            N4   1.358   1_554  A
C3          C389   1.492       .  S
N4          C429   1.353       .  A
C5            N6   1.356       .  A
C5          N428   1.353       .  A
C5          C401   1.469       .  S
Fe7          O23   2.064       .  S
Fe7          O13   2.059       .  S
Fe7          O20   2.070       .  S
Fe7          O12   2.058       .  S
Fe7          O18   1.956       .  S
Fe8          O11   2.048       .  S
Fe8          O15   2.057       .  S
Fe8          O19   2.056       .  S
Fe8          O24   2.051       .  S
Fe8          O18   1.951       .  S
Fe9          O27   2.090       .  S
Fe9          O14   2.074       .  S
Fe9          O21   2.077       .  S
Fe9          O10   2.086       .  S
Fe9          O18   1.965       .  S
O10          C17   1.275       .  A
O11          C25   1.266       .  A
O12          C17   1.271       .  A
O13          C16   1.269       .  A
O14          C26   1.272       .  A
O15          C28   1.268       .  A
C16         C392   1.478       .  S
C16          O21   1.271       .  A
C17         C365   1.488       .  S
O19          C22   1.266       .  A
O20          C22   1.269       .  A
C22         C341   1.488       .  S
O23          C28   1.270       .  A
O24          C26   1.268       .  A
C25         C404   1.485       .  S
C25          O27   1.274       .  A
C26         C380   1.484       .  S
C28         C353   1.478       .  S
C29          N34   1.359       .  A
C29         N454   1.360       .  A
C29         C753   1.484       .  S
N30          C31   1.359       .  A
N30         C453   1.361   1_554  A
C31         N456   1.357   1_554  A
C31         C368   1.485       .  S
N32          C33   1.358       .  A
N32         C455   1.356       .  A
C33          N34   1.355       .  A
C33         C377   1.483       .  S
C35          N36   1.363       .  A
C35          N40   1.356       .  A
C35         C356   1.485   1_565  S
N36          C37   1.362       .  A
C37          N38   1.359       .  A
C37         C317   1.492       .  S
N38          C39   1.356       .  A
C39          N40   1.353       .  A
C39         C305   1.476       .  S
Fe41         O57   2.059       .  S
Fe41         O47   2.061       .  S
Fe41         O54   2.064       .  S
Fe41         O46   2.062       .  S
Fe41        O476   1.956   1_554  S
Fe42         O45   2.074       .  S
Fe42         O49   2.058       .  S
Fe42         O53   2.072       .  S
Fe42         O58   2.054       .  S
Fe42         O52   1.955       .  S
Fe43         O61   2.071       .  S
Fe43         O48   2.083       .  S
Fe43        O479   2.083       .  S
Fe43        O468   2.063       .  S
Fe43         O52   1.962       .  S
O44        Fe467   2.063   1_554  S
O44          C51   1.271       .  A
O45          C59   1.271       .  A
O46          C51   1.271       .  A
O47          C50   1.268       .  A
O48          C60   1.272       .  A
O49         C486   1.269       .  A
C50         C281   1.480       .  S
C50          O55   1.270       .  A
C51         C308   1.477       .  S
O52        Fe465   1.955       .  S
O53          C56   1.270       .  A
O54         C480   1.269   1_554  A
O55        Fe467   2.082   1_554  S
C56         C269   1.492       .  S
C56         O478   1.270       .  A
O57          C62   1.269   1_554  A
O58          C60   1.267       .  A
C59         C293   1.471       .  S
C59          O61   1.271       .  A
C60         C320   1.484       .  S
C62         C332   1.480       .  S
C62         O473   1.270       .  A
C63          N64   1.362       .  A
C63          N68   1.363       .  A
C63         C257   1.493       .  S
N64          C65   1.357   1_455  A
C65          N66   1.355       .  A
C65         C284   1.474       .  S
N66          C67   1.358       .  A
C67          N68   1.360   1_655  A
C67         C296   1.491       .  S
C69          N70   1.359       .  A
C69          N74   1.359       .  A
C69         C245   1.488       .  S
N70          C71   1.358       .  A
C71          N72   1.358       .  A
C71         C233   1.480       .  S
N72          C73   1.357       .  A
C73          N74   1.357       .  A
C73         C224   1.481       .  S
Fe75         O91   2.071       .  S
Fe75         O81   2.075       .  S
Fe75         O88   2.080       .  S
Fe75         O80   2.061       .  S
Fe75        O510   1.961       .  S
Fe76         O79   2.056       .  S
Fe76         O83   2.063       .  S
Fe76         O87   2.057       .  S
Fe76         O92   2.061       .  S
Fe76         O86   1.954       .  S
Fe77         O95   2.078       .  S
Fe77         O82   2.066       .  S
Fe77        O513   2.072       .  S
Fe77        O502   2.075       .  S
Fe77         O86   1.961       .  S
O78        Fe501   2.072       .  S
O78          C85   1.272       .  A
O79          C93   1.268       .  A
O80          C85   1.269       .  A
O81          C84   1.272       .  A
O82          C94   1.270       .  A
O83         C520   1.270       .  A
C84         C197   1.473       .  S
C84          O89   1.269       .  A
C85         C221   1.489       .  S
O86        Fe499   1.957       .  S
O87          C90   1.267       .  A
O88         C514   1.271       .  A
O89        Fe501   2.067       .  S
C90         C416   1.485       .  S
C90         O512   1.269       .  A
O91          C96   1.271       .  A
O92          C94   1.270       .  A
C93         C212   1.483       .  S
C93          O95   1.271       .  A
C94         C236   1.483       .  S
C96         C188   1.487       .  S
C96         O507   1.269   1_554  A
C97          N98   1.363       .  A
C97         N102   1.361       .  A
C97         C344   1.490   1_455  S
N98          C99   1.361       .  A
C99         N100   1.356       .  A
C99         C200   1.491       .  S
N100        C101   1.353       .  A
C101        N102   1.354       .  A
C101        C209   1.466       .  S
C103        N108   1.361       .  A
C103        N528   1.358       .  A
C103        C185   1.488       .  S
N104        C105   1.355       .  A
N104        C527   1.358       .  A
C105        N530   1.357       .  A
C105        C176   1.479       .  S
N106        C107   1.358       .  A
N106        C529   1.358       .  A
C107        N108   1.360       .  A
C107        C161   1.486       .  S
Fe109       O125   2.080       .  S
Fe109       O115   2.054       .  S
Fe109       O122   2.063       .  S
Fe109       O114   2.068       .  S
Fe109       O120   1.954       .  S
Fe110       O113   2.060       .  S
Fe110       O117   2.055       .  S
Fe110       O121   2.059       .  S
Fe110       O126   2.058       .  S
Fe110       O120   1.949       .  S
Fe111       O129   2.069       .  S
Fe111       O116   2.086       .  S
Fe111       O123   2.086       .  S
Fe111       O112   2.075       .  S
Fe111       O120   1.961       .  S
O112        C119   1.271       .  A
O113        C127   1.270       .  A
O114        C119   1.271       .  A
O115        C118   1.269       .  A
O116        C128   1.272       .  A
O117        C130   1.268       .  A
C118        C164   1.487       .  S
C118        O123   1.274       .  A
C119        C137   1.476       .  S
O121        C124   1.270       .  A
O122        C124   1.269       .  A
C124        C248   1.483       .  S
O125        C130   1.271       .  A
O126        C128   1.267       .  A
C127        C173   1.480       .  S
C127        O129   1.272       .  A
C128        C152   1.481       .  S
C130        C260   1.488       .  S
C131        N132   1.365       .  A
C131        N560   1.363       .  A
C131        C272   1.493       .  S
N132        C133   1.360       .  A
C133        N134   1.356       .  A
C133        C140   1.492       .  S
N134        C559   1.352       .  A
C135        N136   1.358       .  A
C135        N558   1.354       .  A
C135        C149   1.473       .  S
N136        C555   1.363       .  A
C137        C138   1.403       .  A
C137        C142   1.406       .  A
C138        C139   1.408       .  A
C138        H143   1.083       .  S
C139        C140   1.417       .  A
C139        O144   1.371       .  S
C140        C141   1.407       .  A
C141        C142   1.392       .  A
C141        H145   1.083       .  S
C142        O146   1.373       .  S
O144        H148   0.992       .  S
O146        H147   0.992       .  S
C149        C150   1.402       .  A
C149        C154   1.406       .  A
C150        C151   1.404       .  A
C150        H155   1.084       .  S
C151        C152   1.412       .  A
C151        O156   1.372       .  S
C152        C153   1.404       .  A
C153        C154   1.399       .  A
C153        H157   1.084       .  S
C154        O158   1.372       .  S
O156        H160   0.991       .  S
O158        H159   0.991       .  S
C161        C162   1.406       .  A
C161        C166   1.411       .  A
C162        C163   1.401       .  A
C162        H167   1.083       .  S
C163        C164   1.412       .  A
C163        O168   1.371       .  S
C164        C165   1.407       .  A
C165        C166   1.398       .  A
C165        H169   1.083       .  S
C166        O170   1.372       .  S
O168        H172   0.991       .  S
O170        H171   0.992       .  S
C173        C174   1.403       .  A
C173        C178   1.413       .  A
C174        C175   1.400       .  A
C174        H179   1.083       .  S
C175        C176   1.413       .  A
C175        O180   1.372       .  S
C176        C177   1.402       .  A
C177        C178   1.396       .  A
C177        H181   1.084       .  S
C178        O182   1.372       .  S
O180        H184   0.992       .  S
O182        H183   0.992       .  S
C185        C190   1.412       .  A
C185        C610   1.409       .  A
C186        C187   1.400       .  A
C186        C609   1.409       .  A
C186        H191   1.083       .  S
C187        C188   1.410       .  A
C187        O192   1.372       .  S
C188        C613   1.408   1_554  A
C189        C190   1.398       .  A
C189        C612   1.407       .  A
C189        H193   1.084       .  S
C190        O194   1.371       .  S
O192        H196   0.992       .  S
O194        H195   0.992       .  S
C197        C198   1.399       .  A
C197        C202   1.405       .  A
C198        C199   1.396       .  A
C198        H203   1.084       .  S
C199        C200   1.415       .  A
C199        O204   1.372       .  S
C200        C201   1.411       .  A
C201        C202   1.405       .  A
C201        H205   1.083       .  S
C202        O206   1.371       .  S
O204        H208   0.992       .  S
O206        H207   0.992       .  S
C209        C210   1.399       .  A
C209        C214   1.404       .  A
C210        C211   1.399       .  A
C210        H215   1.084       .  S
C211        C212   1.413       .  A
C211        O216   1.371       .  S
C212        C213   1.408       .  A
C213        C214   1.400       .  A
C213        H217   1.084       .  S
C214        O218   1.372       .  S
O216        H220   0.992       .  S
O218        H219   0.992       .  S
C221        C222   1.407   1_545  A
C221        C226   1.414       .  A
C222        C223   1.398       .  A
C222        H227   1.083       .  S
C223        C224   1.409       .  A
C223        O228   1.371       .  S
C224        C225   1.404   1_565  A
C225        C226   1.401       .  A
C225        H229   1.084       .  S
C226        O230   1.371       .  S
O228        H232   0.992       .  S
O230        H231   0.992       .  S
C233        C234   1.406       .  A
C233        C238   1.409   1_565  A
C234        C235   1.400       .  A
C234        H239   1.083       .  S
C235        C236   1.411   1_565  A
C235        O240   1.372       .  S
C236        C237   1.407       .  A
C237        C238   1.397       .  A
C237        H241   1.084       .  S
C238        O242   1.372       .  S
O240        H244   0.993       .  S
O242        H243   0.992       .  S
C245        C246   1.409       .  A
C245        C250   1.412       .  A
C246        C247   1.401       .  A
C246        H251   1.083       .  S
C247        C248   1.410       .  A
C247        O252   1.372       .  S
C248        C249   1.405       .  A
C249        C250   1.395       .  A
C249        H253   1.084       .  S
C250        O254   1.371       .  S
O252        H256   0.992       .  S
O254        H255   0.992       .  S
C257        C258   1.409       .  A
C257        C262   1.414       .  A
C258        C259   1.402       .  A
C258        H263   1.083       .  S
C259        C260   1.412       .  A
C259        O264   1.372       .  S
C260        C261   1.405       .  A
C261        C262   1.399       .  A
C261        H265   1.083       .  S
C262        O266   1.371       .  S
O264        H268   0.992       .  S
O266        H267   0.992       .  S
C269        C274   1.414       .  A
C269        C694   1.407       .  A
C270        C271   1.403       .  A
C270        C693   1.407       .  A
C270        H275   1.083       .  S
C271        C696   1.414       .  A
C271        O276   1.371       .  S
C272        C273   1.406       .  A
C272        C695   1.415       .  A
C273        C274   1.399       .  A
C273        H277   1.083       .  S
C274        O278   1.372       .  S
O276        H280   0.992       .  S
O278        H279   0.992       .  S
C281        C282   1.405       .  A
C281        C286   1.411       .  A
C282        C283   1.402       .  A
C282        H287   1.084       .  S
C283        C284   1.407       .  A
C283        O288   1.371       .  S
C284        C285   1.402       .  A
C285        C286   1.401       .  A
C285        H289   1.084       .  S
C286        O290   1.372       .  S
O288        H292   0.991       .  S
O290        H291   0.992       .  S
C293        C294   1.401       .  A
C293        C298   1.405       .  A
C294        C295   1.406       .  A
C294        H299   1.084       .  S
C295        C296   1.417       .  A
C295        O300   1.371       .  S
C296        C297   1.408       .  A
C297        C298   1.397       .  A
C297        H301   1.083       .  S
C298        O302   1.373       .  S
O300        H304   0.990       .  S
O302        H303   0.992       .  S
C305        C306   1.405       .  A
C305        C310   1.408       .  A
C306        C307   1.398       .  A
C306        H311   1.084       .  S
C307        C308   1.409       .  A
C307        O312   1.372       .  S
C308        C309   1.406       .  A
C309        C310   1.397       .  A
C309        H313   1.084       .  S
C310        O314   1.372       .  S
O312        H316   0.991       .  S
O314        H315   0.992       .  S
C317        C318   1.407       .  A
C317        C322   1.414       .  A
C318        C319   1.398       .  A
C318        H323   1.083       .  S
C319        C320   1.411       .  A
C319        O324   1.372       .  S
C320        C321   1.405       .  A
C321        C322   1.403       .  A
C321        H325   1.084       .  S
C322        O326   1.370       .  S
O324        H328   0.992       .  S
O326        H327   0.992       .  S
C329        C453   1.485       .  S
C329        C334   1.412   1_556  A
C329        C754   1.408       .  A
C330        C331   1.397       .  A
C330        C753   1.408       .  A
C330        H335   1.083       .  S
C331        C756   1.409       .  A
C331        O336   1.372       .  S
C332        C333   1.406   1_556  A
C332        C755   1.409       .  A
C333        C334   1.397       .  A
C333        H337   1.084       .  S
C334        O338   1.371       .  S
O336        H340   0.992       .  S
O338        H339   0.992       .  S
C341        C342   1.407       .  A
C341        C346   1.412       .  A
C342        C343   1.399       .  A
C342        H347   1.083       .  S
C343        C344   1.413       .  A
C343        O348   1.371       .  S
C344        C345   1.407       .  A
C345        C346   1.399       .  A
C345        H349   1.083       .  S
C346        O350   1.372       .  S
O348        H352   0.992   1_655  S
O350        H351   0.992       .  S
C353        C354   1.406       .  A
C353        C358   1.406       .  A
C354        C355   1.398       .  A
C354        H359   1.084       .  S
C355        C356   1.410       .  A
C355        O360   1.371       .  S
C356        C357   1.410       .  A
C357        C358   1.398       .  A
C357        H361   1.083       .  S
C358        O362   1.372       .  S
O360        H364   0.992       .  S
O362        H363   0.992       .  S
C365        C366   1.406       .  A
C365        C370   1.412       .  A
C366        C367   1.400       .  A
C366        H371   1.083       .  S
C367        C368   1.410       .  A
C367        O372   1.372       .  S
C368        C369   1.405       .  A
C369        C370   1.401       .  A
C369        H373   1.083       .  S
C370        O374   1.371       .  S
O372        H376   0.992       .  S
O374        H375   0.992       .  S
C377        C378   1.402       .  A
C377        C382   1.414       .  A
C378        C379   1.393       .  A
C378        H383   1.083       .  S
C379        C380   1.414       .  A
C379        O384   1.372       .  S
C380        C381   1.405       .  A
C381        C382   1.403       .  A
C381        H385   1.083       .  S
C382        O386   1.372       .  S
O384        H388   0.992       .  S
O386        H387   0.992       .  S
C389        C390   1.406       .  A
C389        C394   1.417       .  A
C390        C391   1.393       .  A
C390        H395   1.083       .  S
C391        C392   1.408       .  A
C391        O396   1.373       .  S
C392        C393   1.403       .  A
C393        C394   1.408       .  A
C393        H397   1.083       .  S
C394        O398   1.371       .  S
O396        H400   0.992       .  S
O398        H399   0.992       .  S
C401        C402   1.399       .  A
C401        C406   1.405       .  A
C402        C403   1.400       .  A
C402        H407   1.084       .  S
C403        C404   1.415       .  A
C403        O408   1.372       .  S
C404        C405   1.407       .  A
C405        C406   1.402       .  A
C405        H409   1.083       .  S
C406        O410   1.371       .  S
O408        H412   0.991       .  S
O410        H411   0.992       .  S
C413        C418   1.411       .  A
C413        C838   1.404       .  A
C414        C415   1.402       .  A
C414        C837   1.408   1_554  A
C414        H419   1.083       .  S
C415        C840   1.412   1_554  A
C415        O420   1.372       .  S
C416        C417   1.406       .  A
C416        C839   1.413       .  A
C417        C418   1.399       .  A
C417        H421   1.084       .  S
C418        O422   1.372       .  S
O420        H424   0.992       .  S
O422        H423   0.992       .  S
C425        N430   1.362       .  A
C425        C837   1.492       .  S
N426        C427   1.360       .  A
C427        N428   1.358       .  A
C427        C813   1.492       .  S
C429        N430   1.356       .  A
C429        C825   1.470       .  S
Fe431       O447   2.065       .  S
Fe431       O437   2.056       .  S
Fe431       O444   2.066       .  S
Fe431       O436   2.060       .  S
Fe431       O442   1.958       .  S
Fe432       O435   2.052       .  S
Fe432       O439   2.056       .  S
Fe432       O443   2.059       .  S
Fe432       O448   2.052       .  S
Fe432       O442   1.953       .  S
Fe433       O451   2.085       .  S
Fe433       O438   2.075       .  S
Fe433       O445   2.082       .  S
Fe433       O434   2.081       .  S
Fe433       O442   1.967       .  S
O434        C441   1.273       .  A
O435        C449   1.266       .  A
O436        C441   1.271       .  A
O437        C440   1.268       .  A
O438        C450   1.273       .  A
O439        C452   1.268       .  A
C440        C816   1.481       .  S
C440        O445   1.272       .  A
C441        C789   1.486       .  S
O443        C446   1.267       .  A
O444        C446   1.268       .  A
C446        C765   1.488       .  S
O447        C452   1.271       .  A
O448        C450   1.268       .  A
C449        C828   1.481       .  S
C449        O451   1.272       .  A
C450        C804   1.484       .  S
C452        C777   1.478       .  S
C453        N458   1.358       .  A
N454        C455   1.358       .  A
C455        C792   1.485       .  S
N456        C457   1.358       .  A
C457        N458   1.354       .  A
C457        C801   1.483       .  S
C459        N460   1.363       .  A
C459        N464   1.357       .  A
C459        C780   1.484   1_565  S
N460        C461   1.361       .  A
C461        N462   1.358       .  A
C461        C741   1.490       .  S
N462        C463   1.356       .  A
C463        N464   1.354       .  A
C463        C729   1.478       .  S
Fe465       O481   2.061       .  S
Fe465       O471   2.063       .  S
Fe465       O478   2.064       .  S
Fe465       O470   2.065       .  S
Fe466       O469   2.070       .  S
Fe466       O473   2.062       .  S
Fe466       O477   2.072       .  S
Fe466       O482   2.059       .  S
Fe466       O476   1.956       .  S
Fe467       O485   2.073       .  S
Fe467       O472   2.082       .  S
Fe467       O476   1.963       .  S
O468        C475   1.271       .  A
O469        C483   1.271       .  A
O470        C475   1.271       .  A
O471        C474   1.268       .  A
O472        C484   1.273       .  A
C474        C705   1.481       .  S
C474        O479   1.271       .  A
C475        C732   1.479       .  S
O477        C480   1.270       .  A
C480        C693   1.492   1_556  S
O481        C486   1.269       .  A
O482        C484   1.269       .  A
C483        C717   1.473       .  S
C483        O485   1.271       .  A
C484        C744   1.488       .  S
C486        C756   1.477       .  S
C487        N488   1.363       .  A
C487        N492   1.363       .  A
C487        C681   1.494       .  S
N488        C489   1.358   1_455  A
C489        N490   1.355       .  A
C489        C708   1.476       .  S
N490        C491   1.358       .  A
C491        N492   1.360   1_655  A
C491        C720   1.492       .  S
C493        N494   1.358       .  A
C493        N498   1.359       .  A
C493        C669   1.489       .  S
N494        C495   1.359       .  A
C495        N496   1.359       .  A
C495        C657   1.482       .  S
N496        C497   1.358       .  A
C497        N498   1.357       .  A
C497        C648   1.480       .  S
Fe499       O515   2.065       .  S
Fe499       O505   2.068       .  S
Fe499       O512   2.074       .  S
Fe499       O504   2.060       .  S
Fe500       O503   2.056       .  S
Fe500       O507   2.060       .  S
Fe500       O511   2.054       .  S
Fe500       O516   2.065       .  S
Fe500       O510   1.956   1_556  S
Fe501       O519   2.072   1_554  S
Fe501       O506   2.066   1_554  S
Fe501       O510   1.961       .  S
O502        C509   1.274       .  A
O503        C517   1.268       .  A
O504        C509   1.270       .  A
O505        C508   1.271       .  A
O506        C518   1.271       .  A
C508        C621   1.480       .  S
C508        O513   1.270       .  A
C509        C645   1.488       .  S
O511        C514   1.268   1_556  A
C514        C840   1.488   1_554  S
O515        C520   1.271       .  A
O516        C518   1.270       .  A
C517        C636   1.482       .  S
C517        O519   1.269       .  A
C518        C660   1.483       .  S
C520        C612   1.483       .  S
C521        N522   1.364       .  A
C521        N526   1.360       .  A
C521        C768   1.488   1_455  S
N522        C523   1.362       .  A
C523        N524   1.356       .  A
C523        C624   1.493       .  S
N524        C525   1.352       .  A
C525        N526   1.353       .  A
C525        C633   1.464       .  S
C527        N532   1.362   1_554  A
C527        C609   1.489       .  S
N528        C529   1.355       .  A
C529        C600   1.482       .  S
N530        C531   1.358   1_554  A
C531        N532   1.360       .  A
C531        C585   1.487       .  S
Fe533       O549   2.085       .  S
Fe533       O539   2.056       .  S
Fe533       O546   2.065       .  S
Fe533       O538   2.073       .  S
Fe533       O544   1.955       .  S
Fe534       O537   2.062       .  S
Fe534       O541   2.055       .  S
Fe534       O545   2.059       .  S
Fe534       O550   2.058       .  S
Fe534       O544   1.948       .  S
Fe535       O553   2.071       .  S
Fe535       O540   2.083       .  S
Fe535       O547   2.084       .  S
Fe535       O536   2.074       .  S
Fe535       O544   1.961       .  S
O536        C543   1.271       .  A
O537        C551   1.270       .  A
O538        C543   1.272       .  A
O539        C542   1.270       .  A
O540        C552   1.272       .  A
O541        C554   1.268       .  A
C542        C588   1.487       .  S
C542        O547   1.273       .  A
C543        C561   1.475       .  S
O545        C548   1.270       .  A
O546        C548   1.270       .  A
C548        C672   1.485       .  S
O549        C554   1.272       .  A
O550        C552   1.267       .  A
C551        C597   1.483       .  S
C551        O553   1.272       .  A
C552        C576   1.479       .  S
C554        C684   1.491       .  S
C555        N556   1.365   1_554  A
C555        C696   1.493       .  S
N556        C557   1.359       .  A
C557        N558   1.357   1_556  A
C557        C564   1.492       .  S
C559        N560   1.357       .  A
C559        C573   1.471       .  S
C561        C562   1.403       .  A
C561        C566   1.405       .  A
C562        C563   1.408       .  A
C562        H567   1.083       .  S
C563        C564   1.417       .  A
C563        O568   1.371       .  S
C564        C565   1.407       .  A
C565        C566   1.393       .  A
C565        H569   1.083       .  S
C566        O570   1.373       .  S
O568        H572   0.992       .  S
O570        H571   0.992       .  S
C573        C574   1.402       .  A
C573        C578   1.406       .  A
C574        C575   1.403       .  A
C574        H579   1.084       .  S
C575        C576   1.411       .  A
C575        O580   1.371       .  S
C576        C577   1.404       .  A
C577        C578   1.398       .  A
C577        H581   1.084       .  S
C578        O582   1.372       .  S
O580        H584   0.991       .  S
O582        H583   0.991       .  S
C585        C586   1.406       .  A
C585        C590   1.412       .  A
C586        C587   1.402       .  A
C586        H591   1.083       .  S
C587        C588   1.412       .  A
C587        O592   1.371       .  S
C588        C589   1.406       .  A
C589        C590   1.398       .  A
C589        H593   1.083       .  S
C590        O594   1.372       .  S
O592        H596   0.991       .  S
O594        H595   0.991       .  S
C597        C598   1.404       .  A
C597        C602   1.413       .  A
C598        C599   1.401       .  A
C598        H603   1.083       .  S
C599        C600   1.414       .  A
C599        O604   1.372       .  S
C600        C601   1.403       .  A
C601        C602   1.397       .  A
C601        H605   1.084       .  S
C602        O606   1.372       .  S
O604        H608   0.992       .  S
O606        H607   0.992       .  S
C609        C614   1.411   1_554  A
C610        C611   1.399       .  A
C610        H615   1.083       .  S
C611        C612   1.409       .  A
C611        O616   1.372       .  S
C613        C614   1.398       .  A
C613        H617   1.083       .  S
C614        O618   1.371       .  S
O616        H620   0.992       .  S
O618        H619   0.992       .  S
C621        C622   1.401       .  A
C621        C626   1.407       .  A
C622        C623   1.394       .  A
C622        H627   1.084       .  S
C623        C624   1.416       .  A
C623        O628   1.372       .  S
C624        C625   1.411       .  A
C625        C626   1.407       .  A
C625        H629   1.083       .  S
C626        O630   1.371       .  S
O628        H632   0.992       .  S
O630        H631   0.992       .  S
C633        C634   1.398       .  A
C633        C638   1.404       .  A
C634        C635   1.399       .  A
C634        H639   1.084       .  S
C635        C636   1.414       .  A
C635        O640   1.371       .  S
C636        C637   1.407       .  A
C637        C638   1.398       .  A
C637        H641   1.084       .  S
C638        O642   1.372       .  S
O640        H644   0.992       .  S
O642        H643   0.992       .  S
C645        C646   1.406   1_545  A
C645        C650   1.414       .  A
C646        C647   1.398       .  A
C646        H651   1.083       .  S
C647        C648   1.409       .  A
C647        O652   1.371       .  S
C648        C649   1.403   1_565  A
C649        C650   1.402       .  A
C649        H653   1.084       .  S
C650        O654   1.371       .  S
O652        H656   0.992       .  S
O654        H655   0.992       .  S
C657        C658   1.406       .  A
C657        C662   1.410   1_565  A
C658        C659   1.399       .  A
C658        H663   1.083       .  S
C659        C660   1.410   1_565  A
C659        O664   1.372       .  S
C660        C661   1.407       .  A
C661        C662   1.399       .  A
C661        H665   1.084       .  S
C662        O666   1.372       .  S
O664        H668   0.993       .  S
O666        H667   0.992       .  S
C669        C670   1.409       .  A
C669        C674   1.412       .  A
C670        C671   1.402       .  A
C670        H675   1.083       .  S
C671        C672   1.411       .  A
C671        O676   1.371       .  S
C672        C673   1.405       .  A
C673        C674   1.394       .  A
C673        H677   1.083       .  S
C674        O678   1.371       .  S
O676        H680   0.992       .  S
O678        H679   0.992       .  S
C681        C682   1.409       .  A
C681        C686   1.414       .  A
C682        C683   1.402       .  A
C682        H687   1.083       .  S
C683        C684   1.412       .  A
C683        O688   1.372       .  S
C684        C685   1.407       .  A
C685        C686   1.400       .  A
C685        H689   1.083       .  S
C686        O690   1.371       .  S
O688        H692   0.992       .  S
O690        H691   0.992       .  S
C693        C698   1.414   1_554  A
C694        C695   1.402       .  A
C694        H699   1.083       .  S
C695        O700   1.371       .  S
C696        C697   1.406   1_554  A
C697        C698   1.399       .  A
C697        H701   1.083       .  S
C698        O702   1.372       .  S
O700        H704   0.992       .  S
O702        H703   0.992       .  S
C705        C706   1.406       .  A
C705        C710   1.411       .  A
C706        C707   1.403       .  A
C706        H711   1.084       .  S
C707        C708   1.407       .  A
C707        O712   1.371       .  S
C708        C709   1.402       .  A
C709        C710   1.401       .  A
C709        H713   1.084       .  S
C710        O714   1.372       .  S
O712        H716   0.991       .  S
O714        H715   0.992       .  S
C717        C718   1.401       .  A
C717        C722   1.406       .  A
C718        C719   1.406       .  A
C718        H723   1.084       .  S
C719        C720   1.417       .  A
C719        O724   1.371       .  S
C720        C721   1.408       .  A
C721        C722   1.396       .  A
C721        H725   1.083       .  S
C722        O726   1.373       .  S
O724        H728   0.990       .  S
O726        H727   0.992       .  S
C729        C730   1.406       .  A
C729        C734   1.409       .  A
C730        C731   1.399       .  A
C730        H735   1.083       .  S
C731        C732   1.410       .  A
C731        O736   1.371       .  S
C732        C733   1.406       .  A
C733        C734   1.396       .  A
C733        H737   1.084       .  S
C734        O738   1.372       .  S
O736        H740   0.991       .  S
O738        H739   0.992       .  S
C741        C742   1.406       .  A
C741        C746   1.412       .  A
C742        C743   1.399       .  A
C742        H747   1.083       .  S
C743        C744   1.412       .  A
C743        O748   1.372       .  S
C744        C745   1.407       .  A
C745        C746   1.403       .  A
C745        H749   1.083       .  S
C746        O750   1.371       .  S
O748        H752   0.992       .  S
O750        H751   0.992       .  S
C753        C758   1.412       .  A
C754        C755   1.397       .  A
C754        H759   1.083       .  S
C755        O760   1.372       .  S
C756        C757   1.404       .  A
C757        C758   1.397       .  A
C757        H761   1.084       .  S
C758        O762   1.371       .  S
O760        H764   0.992       .  S
O762        H763   0.992       .  S
C765        C766   1.408       .  A
C765        C770   1.411       .  A
C766        C767   1.400       .  A
C766        H771   1.083       .  S
C767        C768   1.411       .  A
C767        O772   1.371       .  S
C768        C769   1.407       .  A
C769        C770   1.399       .  A
C769        H773   1.083       .  S
C770        O774   1.372       .  S
O772        H776   0.992   1_655  S
O774        H775   0.992       .  S
C777        C778   1.406       .  A
C777        C782   1.407       .  A
C778        C779   1.398       .  A
C778        H783   1.084       .  S
C779        C780   1.409       .  A
C779        O784   1.372       .  S
C780        C781   1.410       .  A
C781        C782   1.399       .  A
C781        H785   1.083       .  S
C782        O786   1.372       .  S
O784        H788   0.992       .  S
O786        H787   0.992       .  S
C789        C790   1.405       .  A
C789        C794   1.412       .  A
C790        C791   1.399       .  A
C790        H795   1.083       .  S
C791        C792   1.411       .  A
C791        O796   1.372       .  S
C792        C793   1.406       .  A
C793        C794   1.401       .  A
C793        H797   1.083       .  S
C794        O798   1.371       .  S
O796        H800   0.992       .  S
O798        H799   0.992       .  S
C801        C802   1.401       .  A
C801        C806   1.414       .  A
C802        C803   1.394       .  A
C802        H807   1.084       .  S
C803        C804   1.414       .  A
C803        O808   1.372       .  S
C804        C805   1.405       .  A
C805        C806   1.402       .  A
C805        H809   1.083       .  S
C806        O810   1.372       .  S
O808        H812   0.992       .  S
O810        H811   0.992       .  S
C813        C814   1.405       .  A
C813        C818   1.416       .  A
C814        C815   1.393       .  A
C814        H819   1.083       .  S
C815        C816   1.410       .  A
C815        O820   1.373       .  S
C816        C817   1.404       .  A
C817        C818   1.408       .  A
C817        H821   1.083       .  S
C818        O822   1.371       .  S
O820        H824   0.992       .  S
O822        H823   0.992       .  S
C825        C826   1.401       .  A
C825        C830   1.406       .  A
C826        C827   1.401       .  A
C826        H831   1.084       .  S
C827        C828   1.413       .  A
C827        O832   1.372       .  S
C828        C829   1.405       .  A
C829        C830   1.401       .  A
C829        H833   1.084       .  S
C830        O834   1.371       .  S
O832        H836   0.991       .  S
O834        H835   0.991       .  S
C837        C842   1.414       .  A
C838        C839   1.400       .  A
C838        H843   1.084       .  S
C839        O844   1.372       .  S
C840        C841   1.406       .  A
C841        C842   1.399       .  A
C841        H845   1.083       .  S
C842        O846   1.371       .  S
O844        H848   0.993       .  S
O846        H847   0.992       .  S
