geometry optimzed in LAMMPS
_audit_creation_date              2020-11-30 
_audit_creation_method            'lammps2cif' 
_symmetry_space_group_name_H-M    'P1' 
_symmetry_Int_Tables_number       1 
_symmetry_cell_setting            triclinic 
loop_ 
_symmetry_equiv_pos_as_xyz 
  x,y,z 
_cell_length_a                    47.14858019 
_cell_length_b                    47.051675660123486 
_cell_length_c                    46.992277585372534 
_cell_angle_alpha                 90.00995648603464 
_cell_angle_beta                  89.7276627649356 
_cell_angle_gamma                 89.93482615981605 
loop_ 
_atom_site_label 
_atom_site_type_symbol 
_atom_site_fract_x 
_atom_site_fract_y 
_atom_site_fract_z 
_atom_site_charge 
O1          O  0.05038572  0.00025260  0.26587017    -0.87600
C2          C  0.49273771  0.43428256  0.25807883     0.88500
Mg3        Mg  0.04400102  0.03767991  0.29180963     1.58100
O4          O  0.99485175  0.47936621  0.19766630    -0.87300
O5          O  0.05764667  0.49010404  0.21891790    -0.74600
C6          C  0.41403735  0.07913705  0.25953647     0.93500
O7          O  0.00879797  0.47523270  0.31269652    -0.74400
O8          O  0.43009318  0.07700324  0.28102580    -0.82000
Mg9        Mg  0.04378825  0.45911290  0.28257315     1.58000
C10         C  0.41975968  0.00590457  0.16530711     0.93400
O11         O  0.08001462  0.43820298  0.25792424    -0.80200
H12         H  0.01682770  0.99329682  0.16707895    -0.05600
C13         C  0.43366824  0.49530169  0.25487462     0.88400
O14         O  0.02893210  0.06334442  0.25314869    -0.74700
O15         O  0.01333858  0.44907212  0.25026422    -0.87500
O16         O  0.43195262  0.48256671  0.16877363    -0.80300
C17         C  0.48326062  0.40503078  0.17920543     0.93500
C18         C  0.08208531  0.42138676  0.23683992     0.93400
Mg19       Mg  0.45343628  0.03950793  0.21513735     1.58000
O20         O  0.41745334  0.06399373  0.23729544    -0.80200
O21         O  0.48897477  0.02122296  0.18727967    -0.74500
O22         O  0.00513369  0.41326586  0.19109309    -0.80300
O23         O  0.07624003  0.46941522  0.31574269    -0.82000
O24         O  0.48998907  0.08630884  0.30810658    -0.80300
C25         C  0.00112983  0.99728737  0.18344627     0.87800
O26         O  0.48245298  0.04987799  0.24871325    -0.87500
O27         O  0.44667674  0.49883201  0.23224947    -0.87600
O28         O  0.43701564  0.00973264  0.28017704    -0.74600
Mg29       Mg  0.02905260  0.45206845  0.20731980     1.58000
O30         O  0.46164431  0.42140153  0.17893526    -0.82000
H31         H  0.07938241  0.01953161  0.24144060    -0.05700
O32         O  0.50011899  0.01975621  0.30221048    -0.87300
H33         H  0.48143731  0.50455733  0.33240528    -0.05600
H34         H  0.00366026  0.08044423  0.22276087    -0.05700
C35         C  0.49690356  0.50121365  0.31567749     0.87800
C36         C  0.06332495  0.00321692  0.24310658     0.88400
C37         C  0.00541722  0.06579271  0.24038776     0.88400
H38         H  0.41771669  0.47884173  0.25609651    -0.05700
O39         O  0.46916312  0.43610457  0.24532495    -0.74700
Mg40       Mg  0.46587482  0.04733992  0.29161233     1.58000
H41         H  0.49483116  0.41984585  0.27585053    -0.05700
C42         C  0.07959078  0.49062912  0.33204246     0.93400
O43         O  0.03622430  0.07767147  0.31923141    -0.82000
C44         C  0.01490424  0.09443990  0.31935664     0.93500
O45         O  0.06436723  0.42200151  0.21671155    -0.82000
Mg46       Mg  0.45349567  0.46134193  0.20660401     1.58200
O47         O  0.06498025  0.01598200  0.33034037    -0.80300
O48         O  0.42290975  0.02852383  0.17980529    -0.82800
O49         O  0.02894165  0.21414465  0.47119310    -0.87600
C50         C  0.01842199  0.29964416  0.46002334     0.88500
Mg51       Mg  0.49240320  0.18555823  0.47212969     1.58100
O52         O  0.03585064  0.27591510  0.03058540    -0.87300
O53         O  0.06523986  0.22746749  0.49676681    -0.74600
C54         C  0.40233751  0.23915511  0.06422239     0.93500
O55         O  0.48191648  0.24605841  0.43378674    -0.74400
O56         O  0.40319374  0.22303819  0.04243494    -0.82000
Mg57       Mg  0.03085073  0.24300108  0.43576810     1.58000
C58         C  0.98779504  0.31381652  0.09697332     0.93400
O59         O  0.07987348  0.24189038  0.43157305    -0.80200
H60         H  0.06086926  0.25671601  0.05900302    -0.05600
C61         C  0.45305986  0.28879721  0.01606509     0.88400
O62         O  0.49502274  0.18168088  0.02293699    -0.74700
O63         O  0.03204007  0.27795524  0.46571659    -0.87500
O64         O  0.00585421  0.31874186  0.07729540    -0.80300
C65         C  0.06632925  0.34603349  0.51336024     0.93500
C66         C  0.09957626  0.25941503  0.43768316     0.93400
Mg67       Mg  0.47204664  0.25372807  0.06600312     1.58000
O68         O  0.42321199  0.25498001  0.07100282    -0.80200
O69         O  0.01868343  0.25196286  0.06673863    -0.74500
O70         O  0.07366129  0.32524767  0.49752869    -0.80300
O71         O  0.02972284  0.20591200  0.40412036    -0.82000
O72         O  0.42671217  0.17273822  0.00318441    -0.80300
C73         C  0.03947505  0.26157150  0.05231513     0.87800
O74         O  0.46994516  0.21854522  0.03636192    -0.87500
O75         O  0.47387899  0.28264166  0.03066934    -0.87600
O76         O  0.43758563  0.26972145  0.00499027    -0.74600
Mg77       Mg  0.06613553  0.27662732  0.49595223     1.58000
O78         O  0.04600566  0.34255005  0.02862062    -0.82000
H79         H  0.05501537  0.18614164  0.48957961    -0.05700
O80         O  0.46477447  0.22248061  0.47012967    -0.87300
H81         H  0.43974909  0.24133252  0.44150370    -0.05600
H82         H  0.48649968  0.19114800  0.06426064    -0.05700
C83         C  0.46113904  0.23655603  0.44824461     0.87800
C84         C  0.04987731  0.20821283  0.48576520     0.88400
C85         C  0.48357920  0.19688291  0.04217552     0.88400
H86         H  0.44819647  0.31091700  0.01219225    -0.05700
O87         O  0.00714520  0.31479289  0.47940649    -0.74700
Mg88       Mg  0.43574621  0.22072653  0.00592243     1.58000
H89         H  0.01553705  0.30555701  0.43797686    -0.05700
C90         C  0.51171952  0.18446873  0.40320189     0.93400
O91         O  0.45475182  0.15508331  0.47268681    -0.82000
C92         C  0.43448218  0.15117850  0.98865235     0.93500
O93         O  0.09801814  0.27564842  0.45928611    -0.82000
Mg94       Mg  0.00801433  0.31217928  0.02869913     1.58200
O95         O  0.49441984  0.17910647  0.42344828    -0.80300
O96         O  0.47341440  0.29117284  0.09708249    -0.82000
O97         O  0.26423585  0.20028617  0.24933925    -0.87600
C98         C  0.25768838  0.25773843  0.31580229     0.88500
Mg99       Mg  0.29115662  0.20681347  0.21235060     1.58100
O100        O  0.19817589  0.25557213  0.27094419    -0.87300
O101        O  0.21968655  0.19242658  0.26023517    -0.74600
C102        C  0.25929276  0.33613690  0.17099006     0.93500
O103        O  0.31285417  0.24245262  0.27334993    -0.74400
O104        O  0.28038283  0.31943619  0.17239998    -0.82000
Mg105      Mg  0.28371180  0.20746886  0.29050058     1.58000
C106        C  0.16482424  0.33128747  0.24177866     0.93400
O107        O  0.26061195  0.17141537  0.31373875    -0.80200
H108        H  0.16605943  0.23410278  0.25357550    -0.05600
C109        C  0.25629315  0.31700344  0.25464151     0.88400
O110        O  0.25353845  0.22300518  0.18613798    -0.74700
O111        O  0.25097021  0.23738290  0.30072737    -0.87500
O112        O  0.16969537  0.31902505  0.26547999    -0.80300
C113        C  0.17936204  0.26761823  0.34416339     0.93500
C114        C  0.23903009  0.16891099  0.32992501     0.93400
Mg115      Mg  0.21475434  0.29642683  0.20945759     1.58000
O116        O  0.23759750  0.33311800  0.18694264    -0.80200
O117        O  0.18622425  0.26093627  0.22645485    -0.74500
O118        O  0.19285989  0.24526376  0.33724790    -0.80300
O119        O  0.31764480  0.17584242  0.27993910    -0.82000
O120        O  0.30730524  0.25945845  0.16296560    -0.80300
C121        C  0.18253617  0.24984600  0.25076189     0.87800
O122        O  0.24799365  0.26712723  0.19915840    -0.87500
O123        O  0.23387290  0.30398672  0.25076000    -0.87600
O124        O  0.27854889  0.31171275  0.24020145    -0.74600
Mg125      Mg  0.20833787  0.22123212  0.29824282     1.58000
O126        O  0.17894521  0.28928343  0.32774327    -0.82000
H127        H  0.24089322  0.17126708  0.22906237    -0.05700
O128        O  0.30055950  0.24856466  0.22908891    -0.87300
H129        H  0.33316846  0.26933022  0.24637966    -0.05600
H130        H  0.22414704  0.24937491  0.16889930    -0.05700
C131        C  0.31645826  0.25384404  0.24917394     0.87800
C132        C  0.24184705  0.18716553  0.24564327     0.88400
C133        C  0.24129588  0.24688754  0.18393792     0.88400
H134        H  0.25720218  0.33280507  0.27131082    -0.05700
O135        O  0.24510364  0.28147551  0.31378860    -0.74700
Mg136      Mg  0.29053632  0.28333953  0.20203601     1.58000
H137        H  0.27505093  0.25545532  0.33063145    -0.05700
C138        C  0.33281053  0.17124127  0.25801875     0.93400
O139        O  0.31937292  0.21477073  0.17247846    -0.82000
C140        C  0.32011497  0.23656658  0.15622299     0.93500
O141        O  0.21807709  0.18568171  0.32834149    -0.82000
Mg142      Mg  0.20713136  0.29730351  0.28776213     1.58200
O143        O  0.32849151  0.18431734  0.23461021    -0.80300
O144        O  0.17978207  0.32694853  0.21966714    -0.82000
O145        O  0.29081210  0.47479617  0.02141880    -0.87600
C146        C  0.20789519  0.48693577  0.04745456     0.88500
Mg147      Mg  0.31925774  0.00877185  0.01228376     1.58100
O148        O  0.21593967  0.45900823  0.48112933    -0.87300
O149        O  0.27380680  0.43429350  0.00635655    -0.74600
C150        C  0.24381144  0.08827784  0.42239917     0.93500
O151        O  0.26571036  0.03032722  0.05771201    -0.74400
O152        O  0.26346282  0.09049676  0.44066200    -0.82000
Mg153      Mg  0.26809260  0.48021869  0.06110695     1.58000
C154        C  0.17014314  0.49289733  0.41382532     0.93400
O155        O  0.27217109  0.43333020  0.07392065    -0.80200
H156        H  0.23075689  0.42764231  0.45649739    -0.05600
C157        C  0.20516973  0.04809765  0.48695623     0.88400
O158        O  0.30977127  0.00424580  0.46509987    -0.74700
O159        O  0.22865882  0.47309891  0.03935010    -0.87500
O160        O  0.16639090  0.48248284  0.43849113    -0.80300
C161        C  0.15450624  0.43015413  0.01058021     0.93500
C162        C  0.25477736  0.41269089  0.07508296     0.93400
Mg163      Mg  0.23038303  0.01975326  0.43493861     1.58000
O164        O  0.22714702  0.06696851  0.42188083    -0.80200
O165        O  0.23601462  0.46705843  0.43980401    -0.74500
O166        O  0.17728328  0.42515295  0.02441844    -0.80300
O167        O  0.30880028  0.48777136  0.08468131    -0.82000
O168        O  0.32135620  0.07344536  0.47042679    -0.80300
C169        C  0.22729908  0.45021908  0.45905660     0.87800
O170        O  0.27011880  0.02643252  0.45636916    -0.87500
O171        O  0.20823106  0.02495187  0.47488855    -0.87600
O172        O  0.22598404  0.06469155  0.49120708    -0.74600
Mg173      Mg  0.22578263  0.43371996  0.01638363     1.58000
O174        O  0.15126480  0.45398610  0.49618668    -0.82000
H175        H  0.31540783  0.44512785  0.00338979    -0.05700
O176        O  0.28494027  0.03881145  0.01611419    -0.87300
H177        H  0.27146505  0.06997523  0.04173780    -0.05600
H178        H  0.29192503  0.00616294  0.42591209    -0.05700
C179        C  0.27432889  0.04739445  0.03862320     0.87800
C180        C  0.29437217  0.45126727  0.01029212     0.88400
C181        C  0.29062409  0.01233606  0.44804646     0.88400
H182        H  0.18434531  0.05415109  0.49457382    -0.05700
O183        O  0.18909223  0.49515728  0.03008785    -0.74700
Mg184      Mg  0.27367233  0.06548670  0.47991903     1.58000
H185        H  0.20607377  0.49276174  0.06965070    -0.05700
C186        C  0.33108555  0.00308460  0.08146413     0.93400
O187        O  0.34972772  0.04392242  0.00014974    -0.82000
C188        C  0.34504908  0.06879278  0.48268119     0.93500
O189        O  0.23487450  0.40981359  0.05709583    -0.82000
Mg190      Mg  0.18134828  0.48912112  0.48390483     1.58200
O191        O  0.33434655  0.01576280  0.05782642    -0.80300
O192        O  0.18882718  0.01291006  0.41208712    -0.82000
C193        C  0.23146891  0.38231939  0.11166523     0.24400
C194        C  0.25657657  0.39281521  0.09935154    -0.23700
C195        C  0.28273370  0.38632819  0.11217147     0.19300
C196        C  0.28375585  0.36871617  0.13620005     0.24300
C197        C  0.25857983  0.35787791  0.14823602    -0.23700
C198        C  0.23241756  0.36527869  0.13590566     0.19200
F199        F  0.20760147  0.35511358  0.14657634    -0.13600
F200        F  0.20575673  0.38915508  0.10066950    -0.16000
F201        F  0.30935161  0.36228082  0.14767056    -0.16000
F202        F  0.30734892  0.39660272  0.10116094    -0.13600
C203        C  0.21461523  0.13510649  0.36353884     0.24400
C204        C  0.23966656  0.14753239  0.35292321    -0.23700
C205        C  0.26554977  0.14159852  0.36645761     0.19300
C206        C  0.26653108  0.12324124  0.38968605     0.24300
C207        C  0.24169107  0.11002302  0.39979635    -0.23700
C208        C  0.21567484  0.11617825  0.38655011     0.19200
F209        F  0.19124555  0.10417621  0.39609587    -0.13600
F210        F  0.18917234  0.14105694  0.35149513    -0.16000
F211        F  0.29210324  0.11779205  0.40172894    -0.16000
F212        F  0.28995947  0.15435311  0.35783848    -0.13600
C213        C  0.38779487  0.13373928  0.97209820     0.24400
C214        C  0.41392104  0.12781797  0.98501103    -0.23700
C215        C  0.41749224  0.10449006  0.48830376     0.19300
C216        C  0.39667921  0.08314271  0.48702961     0.24300
C217        C  0.36853706  0.08975990  0.47911137    -0.23700
C218        C  0.36712178  0.11264360  0.96943536     0.19200
F219        F  0.34193526  0.11986176  0.95752735    -0.13600
F220        F  0.38214453  0.16028696  0.96225663    -0.16000
F221        F  0.40394423  0.05616867  0.49421602    -0.16000
F222        F  0.44418249  0.09770304  0.49663048    -0.13600
C223        C  0.08749309  0.39027691  0.49289119     0.24400
C224        C  0.08555823  0.37074475  0.51527712    -0.23700
C225        C  0.10330670  0.37333137  0.03793739     0.19300
C226        C  0.12469323  0.39416434  0.03751581     0.24300
C227        C  0.13001375  0.41012004  0.01268088    -0.23700
C228        C  0.10812594  0.41171532  0.49324180     0.19200
F229        F  0.10974995  0.42947975  0.47052346    -0.13600
F230        F  0.06985475  0.38808449  0.47024116    -0.16000
F231        F  0.14042175  0.39843318  0.06125602    -0.16000
F232        F  0.09921017  0.35771504  0.06190094    -0.13600
C233        C  0.13103573  0.28891839  0.40630203     0.24400
C234        C  0.12379129  0.26216069  0.41765100    -0.23700
C235        C  0.13704807  0.23786001  0.40666589     0.19300
C236        C  0.15628368  0.23997743  0.38401849     0.24300
C237        C  0.16223908  0.26657451  0.37109375    -0.23700
C238        C  0.14983066  0.29111279  0.38306442     0.19200
F239        F  0.15513647  0.31715085  0.37182315    -0.13600
F240        F  0.11832131  0.31281000  0.41639740    -0.16000
F241        F  0.16781912  0.21550090  0.37388421    -0.16000
F242        F  0.13078094  0.21180962  0.41742275    -0.13600
C243        C  0.34785227  0.26297824  0.11863082     0.24400
C244        C  0.33792060  0.23681686  0.12971729    -0.23700
C245        C  0.34691644  0.21153411  0.11631090     0.19300
C246        C  0.36623962  0.21238542  0.09337536     0.24300
C247        C  0.37743109  0.23846413  0.08375281    -0.23700
C248        C  0.36752368  0.26369855  0.09623701     0.19200
F249        F  0.37759215  0.28922246  0.08726625    -0.13600
F250        F  0.33990565  0.28810032  0.13048530    -0.16000
F251        F  0.37552504  0.18755555  0.08191032    -0.16000
F252        F  0.33759433  0.18593037  0.12578980    -0.13600
C253        C  0.35746207  0.13107132  0.28354073     0.24400
C254        C  0.35481776  0.14861104  0.25922409    -0.23700
C255        C  0.37171635  0.14251851  0.23515380     0.19300
C256        C  0.39010765  0.11926567  0.23512983     0.24300
C257        C  0.39247232  0.10179099  0.25923963    -0.23700
C258        C  0.37631835  0.10809018  0.28356870     0.19200
F259        F  0.37838000  0.09163543  0.30721084    -0.13600
F260        F  0.34151096  0.13568607  0.30724059    -0.16000
F261        F  0.40650285  0.11448349  0.21176795    -0.16000
F262        F  0.37056573  0.15897329  0.21144944    -0.13600
C263        C  0.10698094  0.37954288  0.21438380     0.24400
C264        C  0.10446103  0.39923316  0.23697158    -0.23700
C265        C  0.12163206  0.39561524  0.26120331     0.19300
C266        C  0.14031627  0.37277535  0.26302547     0.24300
C267        C  0.14271565  0.35324806  0.24058239    -0.23700
C268        C  0.12613578  0.35691729  0.21612723     0.19200
F269        F  0.12814412  0.33831099  0.19410551    -0.13600
F270        F  0.09075822  0.38183810  0.19069269    -0.16000
F271        F  0.15691636  0.37039060  0.28645142    -0.16000
F272        F  0.12027556  0.41393249  0.28350773    -0.13600
C273        C  0.11850959  0.49229481  0.40207275     0.24400
C274        C  0.14698813  0.48995828  0.39293600    -0.23700
C275        C  0.15281526  0.48654237  0.36380136     0.19300
C276        C  0.13059974  0.48574022  0.34416795     0.24300
C277        C  0.10234089  0.48926677  0.35327248    -0.23700
C278        C  0.09641318  0.49237422  0.38231401     0.19200
F279        F  0.06923721  0.49541735  0.39150773    -0.13600
F280        F  0.11210378  0.49579884  0.43006147    -0.16000
F281        F  0.13672514  0.48258220  0.31607263    -0.16000
F282        F  0.17995884  0.48392790  0.35436963    -0.13600
C283        C  0.38364993  0.98007540  0.13683205     0.24400
C284        C  0.39870665  0.00534763  0.14214450    -0.23700
C285        C  0.39161019  0.03008150  0.12687194     0.19300
C286        C  0.36965476  0.02952311  0.10688400     0.24300
C287        C  0.35401302  0.00446242  0.10254537    -0.23700
C288        C  0.36146306  0.97972373  0.11742524     0.19200
F289        F  0.34760638  0.95487150  0.11272974    -0.13600
F290        F  0.38960472  0.95577256  0.15122441    -0.16000
F291        F  0.36325740  0.05358148  0.09229240    -0.16000
F292        F  0.40594702  0.05470596  0.13119860    -0.13600
C293        C  0.45985214  0.36469863  0.15205659     0.24400
C294        C  0.48448104  0.37880311  0.16130112    -0.23700
C295        C  0.00953685  0.36927709  0.15082372     0.19300
C296        C  0.01086643  0.34661698  0.13163974     0.24300
C297        C  0.98601531  0.33427090  0.12101435    -0.23700
C298        C  0.46182316  0.34157661  0.13311948     0.19200
F299        F  0.43759073  0.32928924  0.12365933    -0.13600
F300        F  0.43384951  0.37360934  0.16082432    -0.16000
F301        F  0.03668796  0.33719314  0.12280500    -0.16000
F302        F  0.03438688  0.38105612  0.15929043    -0.13600
C303        C  0.04013973  0.13345258  0.34665233     0.24400
C304        C  0.01481324  0.12065138  0.33733673    -0.23700
C305        C  0.48717920  0.13083116  0.34858766     0.19300
C306        C  0.48689112  0.15316190  0.36825407     0.24300
C307        C  0.51232018  0.16465253  0.37855039    -0.23700
C308        C  0.03940898  0.15594826  0.36638808     0.19200
F309        F  0.06425146  0.16686908  0.37592925    -0.13600
F310        F  0.06564728  0.12377876  0.33724118    -0.16000
F311        F  0.46154646  0.16305487  0.37792710    -0.16000
F312        F  0.46187956  0.11985371  0.34036597    -0.13600
O313        O  0.05116283  0.99865121  0.76457185    -0.87600
C314        C  0.49178785  0.43519902  0.75952639     0.88500
Mg315      Mg  0.04471218  0.03533425  0.79126095     1.58100
O316        O  0.99506337  0.47797882  0.69989430    -0.87300
O317        O  0.05772759  0.48703168  0.72213161    -0.74600
C318        C  0.41805499  0.08043050  0.75728603     0.93500
O319        O  0.00572634  0.47611320  0.81516917    -0.74400
O320        O  0.43394894  0.07782741  0.77883865    -0.82000
Mg321      Mg  0.04104017  0.45806931  0.78678548     1.58000
C322        C  0.42069221  0.00738411  0.66430645     0.93400
O323        O  0.07724351  0.43479291  0.76400670    -0.80200
H324        H  0.01631021  0.99206070  0.66599932    -0.05600
C325        C  0.43365892  0.49754980  0.75542886     0.88400
O326        O  0.02919144  0.06150986  0.75312454    -0.74700
O327        O  0.01141970  0.44789159  0.75363319    -0.87500
O328        O  0.43447965  0.48567330  0.66853492    -0.80300
C329        C  0.48309909  0.40666619  0.68010731     0.93500
C330        C  0.08015955  0.41849368  0.74257439     0.93400
Mg331      Mg  0.45674518  0.04009664  0.71291401     1.58000
O332        O  0.42139935  0.06541877  0.73497207    -0.80200
O333        O  0.49156507  0.02124979  0.68465011    -0.74500
O334        O  0.00372447  0.41093597  0.69519991    -0.80300
O335        O  0.07239867  0.46887704  0.82124910    -0.82000
O336        O  0.49388737  0.08622909  0.80540515    -0.80300
C337        C  0.00090718  0.99588489  0.68268528     0.87800
O338        O  0.48597021  0.04983026  0.74630912    -0.87500
O339        O  0.44728323  0.50097485  0.73316641    -0.87600
O340        O  0.43991278  0.01040139  0.77804949    -0.74600
Mg341      Mg  0.02828796  0.44970817  0.71097998     1.58000
O342        O  0.46197460  0.42365570  0.67967919    -0.82000
H343        H  0.07957570  0.01869981  0.74007008    -0.05700
O344        O  0.50326441  0.01958738  0.79953458    -0.87300
H345        H  0.48017013  0.50502944  0.83324937    -0.05600
H346        H  0.00354257  0.07869960  0.72310275    -0.05700
C347        C  0.49598939  0.50157209  0.81688066     0.87800
C348        C  0.06376503  0.00214154  0.74169350     0.88400
C349        C  0.00558113  0.06384353  0.74052500     0.88400
H350        H  0.41733806  0.48143036  0.75614714    -0.05700
O351        O  0.46850534  0.43800958  0.74635930    -0.74700
Mg352      Mg  0.46934148  0.04758617  0.78918776     1.58000
H353        H  0.49292996  0.42071808  0.77735174    -0.05700
C354        C  0.07587817  0.49109494  0.83623151     0.93400
O355        O  0.03695711  0.07436532  0.81953543    -0.82000
C356        C  0.01572147  0.09117451  0.82003173     0.93500
O357        O  0.06304713  0.41936689  0.72189034    -0.82000
Mg358      Mg  0.45416110  0.46366297  0.70730725     1.58200
O359        O  0.06605810  0.01341150  0.82937291    -0.80300
O360        O  0.42593201  0.03000830  0.67805040    -0.82800
O361        O  0.02976904  0.21079924  0.97269464    -0.87600
C362        C  0.01927217  0.29622139  0.96030721     0.88500
Mg363      Mg  0.49526732  0.18125338  0.97394786     1.58100
O364        O  0.03515363  0.27856051  0.53007975    -0.87300
O365        O  0.06604947  0.22443040  0.99810438    -0.74600
C366        C  0.39937213  0.24325250  0.56171901     0.93500
O367        O  0.48279598  0.24119815  0.93524671    -0.74400
O368        O  0.40020612  0.22762486  0.53958998    -0.82000
Mg369      Mg  0.03150692  0.23906184  0.93674235     1.58000
C370        C  0.98711289  0.31480799  0.59723083     0.93400
O371        O  0.08051091  0.23794965  0.93229209    -0.80200
H372        H  0.06053244  0.25917116  0.55802638    -0.05600
C373        C  0.45113557  0.29307238  0.51504205     0.88400
O374        O  0.49157398  0.18534572  0.52104833    -0.74700
O375        O  0.03254907  0.27438716  0.96627255    -0.87500
O376        O  0.00427415  0.32078435  0.57704944    -0.80300
C377        C  0.06781316  0.34292896  0.01257580     0.93500
C378        C  0.10007153  0.25570544  0.93813524     0.93400
Mg379      Mg  0.46905459  0.25701148  0.56465572     1.58000
O380        O  0.42026683  0.25886455  0.56890278    -0.80200
O381        O  0.01846583  0.25357598  0.56573997    -0.74500
O382        O  0.07408226  0.32214062  0.99632527    -0.80300
O383        O  0.03047311  0.20156475  0.90579232    -0.82000
O384        O  0.42341976  0.17798355  0.49997223    -0.80300
C385        C  0.03904801  0.26385932  0.55151403     0.87800
O386        O  0.46679711  0.22239391  0.53447118    -0.87500
O387        O  0.47174067  0.28615478  0.52959601    -0.87600
O388        O  0.43543103  0.27456097  0.50338996    -0.74600
Mg389      Mg  0.06674715  0.27352161  0.99632762     1.58000
O390        O  0.04386312  0.34549059  0.52842926    -0.82000
H391        H  0.05582606  0.18302110  0.99144019    -0.05700
O392        O  0.46688677  0.21753914  0.97204778    -0.87300
H393        H  0.44089920  0.23529490  0.94359874    -0.05600
H394        H  0.48246194  0.19443368  0.56232390    -0.05700
C395        C  0.46251642  0.23122748  0.95007064     0.87800
C396        C  0.05070557  0.20504306  0.98733092     0.88400
C397        C  0.47999684  0.20046223  0.54025948     0.88400
H398        H  0.44669659  0.31536798  0.51169711    -0.05700
O399        O  0.00850261  0.31194998  0.97953467    -0.74700
Mg400      Mg  0.43309952  0.22562362  0.50350871     1.58000
H401        H  0.01637233  0.30185195  0.93818771    -0.05700
C402        C  0.51390218  0.18031967  0.90463551     0.93400
O403        O  0.45800498  0.15037213  0.97529552    -0.82000
C404        C  0.43105636  0.15623556  0.48569373     0.93500
O405        O  0.09844680  0.27207227  0.95961562    -0.82000
Mg406      Mg  0.00662799  0.31448051  0.52849412     1.58200
O407        O  0.49709827  0.17421165  0.92512099    -0.80300
O408        O  0.47062015  0.29398547  0.59647039    -0.82000
O409        O  0.26678239  0.20026940  0.74923592    -0.87600
C410        C  0.26074664  0.25684825  0.81686550     0.88500
Mg411      Mg  0.29274021  0.20735120  0.71174024     1.58100
O412        O  0.20044201  0.25522307  0.77304025    -0.87300
O413        O  0.22231678  0.19255534  0.76068425    -0.74600
C414        C  0.25895336  0.33693837  0.67290904     0.93500
O415        O  0.31536135  0.24281623  0.77275988    -0.74400
O416        O  0.27997432  0.32013216  0.67359477    -0.82000
Mg417      Mg  0.28693113  0.20737153  0.79006745     1.58000
C418        C  0.16611289  0.33121031  0.74585307     0.93400
O419        O  0.26463495  0.17081328  0.81321592    -0.80200
H420        H  0.16777019  0.23406019  0.75635239    -0.05600
C421        C  0.25819628  0.31683126  0.75655085     0.88400
O422        O  0.25423592  0.22370938  0.68683815    -0.74700
O423        O  0.25399471  0.23681392  0.80139000    -0.87500
O424        O  0.17169884  0.31881559  0.76930169    -0.80300
C425        C  0.18189486  0.26552432  0.84622130     0.93500
C426        C  0.24313106  0.16771251  0.82939560     0.93400
Mg427      Mg  0.21548384  0.29688247  0.71202354     1.58000
O428        O  0.23771488  0.33390811  0.68945620    -0.80200
O429        O  0.18725381  0.26120086  0.72903947    -0.74500
O430        O  0.19606357  0.24352723  0.83937787    -0.80300
O431        O  0.32116492  0.17639472  0.77843819    -0.82000
O432        O  0.30648686  0.26056684  0.66266011    -0.80300
C433        C  0.18420634  0.24979730  0.75327189     0.87800
O434        O  0.24852371  0.26758477  0.70070244    -0.87500
O435        O  0.23558690  0.30402342  0.75302289    -0.87600
O436        O  0.28005028  0.31169200  0.74143001    -0.74600
Mg437      Mg  0.21139241  0.22046431  0.79944013     1.58000
O438        O  0.18154683  0.28744827  0.83016001    -0.82000
H439        H  0.24289541  0.17179522  0.72884580    -0.05700
O440        O  0.30218286  0.24894116  0.72877077    -0.87300
H441        H  0.33495627  0.26991420  0.74548531    -0.05600
H442        H  0.22396962  0.24994773  0.67094342    -0.05700
C443        C  0.31844030  0.25426922  0.74854860     0.87800
C444        C  0.24423268  0.18737730  0.74569632     0.88400
C445        C  0.24159738  0.24746164  0.68541632     0.88400
H446        H  0.25963091  0.33233343  0.77346040    -0.05700
O447        O  0.24789514  0.28049402  0.81562453    -0.74700
Mg448      Mg  0.29105041  0.28388443  0.70251382     1.58000
H449        H  0.27832594  0.25435939  0.83140317    -0.05700
C450        C  0.33596966  0.17193798  0.75623050     0.93400
O451        O  0.31974031  0.21600916  0.67120175    -0.82000
C452        C  0.31947311  0.23800533  0.65521217     0.93500
O453        O  0.22204622  0.18436662  0.82838158    -0.82000
Mg454      Mg  0.20948372  0.29663511  0.79040632     1.58200
O455        O  0.33092921  0.18482966  0.73284918    -0.80300
O456        O  0.18060060  0.32723176  0.72335297    -0.82000
O457        O  0.28988185  0.47595796  0.52455007    -0.87600
C458        C  0.20729817  0.49011887  0.54914978     0.88500
Mg459      Mg  0.31859263  0.01228307  0.51246571     1.58100
O460        O  0.21734081  0.45813623  0.97883373    -0.87300
O461        O  0.27232188  0.43561479  0.50961575    -0.74600
C462        C  0.24771437  0.08607868  0.92084540     0.93500
O463        O  0.26393471  0.03322515  0.55821351    -0.74400
O464        O  0.26728786  0.08815792  0.93924297    -0.82000
Mg465      Mg  0.26724036  0.48225631  0.56384618     1.58000
C466        C  0.16996849  0.49465009  0.91411952     0.93400
O467        O  0.27033372  0.43552122  0.57729398    -0.80200
H468        H  0.23227602  0.42842287  0.95225446    -0.05600
C469        C  0.20761980  0.04794092  0.98511100     0.88400
O470        O  0.31099416  0.00056313  0.96486764    -0.74700
O471        O  0.22772857  0.47539522  0.54185193    -0.87500
O472        O  0.16892724  0.47955004  0.93646491    -0.80300
C473        C  0.15269710  0.43327962  0.51346533     0.93500
C474        C  0.25293129  0.41488085  0.57830797     0.93400
Mg475      Mg  0.23261628  0.01796792  0.93376901     1.58000
O476        O  0.23076242  0.06500363  0.92026913    -0.80200
O477        O  0.23570699  0.46877550  0.93726728    -0.74500
O478        O  0.17555039  0.42782928  0.52703637    -0.80300
O479        O  0.30861099  0.48898963  0.58713657    -0.82000
O480        O  0.32444200  0.06989798  0.97005139    -0.80300
C481        C  0.22833530  0.45074480  0.95606167     0.87800
O482        O  0.27221702  0.02402339  0.95546968    -0.87500
O483        O  0.21050578  0.02448585  0.97365874    -0.87600
O484        O  0.22867447  0.06414050  0.98949490    -0.74600
Mg485      Mg  0.22417959  0.43565657  0.51937781     1.58000
O486        O  0.15281452  0.45089151  0.99335253    -0.82000
H487        H  0.31410783  0.44579595  0.50683815    -0.05700
O488        O  0.28362688  0.04162390  0.51688266    -0.87300
H489        H  0.26975601  0.07282411  0.54222702    -0.05600
H490        H  0.29380716  0.00294849  0.92540955    -0.05700
C491        C  0.27282366  0.05024877  0.53926551     0.87800
C492        C  0.29313194  0.45229992  0.51358591     0.88400
C493        C  0.29239154  0.00925093  0.94750106     0.88400
H494        H  0.18676033  0.05458371  0.99210851    -0.05700
O495        O  0.18891399  0.49817474  0.53127442    -0.74700
Mg496      Mg  0.27640310  0.06314369  0.97889312     1.58000
H497        H  0.20543128  0.49689058  0.57107130    -0.05700
C498        C  0.33039092  0.00711045  0.58225708     0.93400
O499        O  0.34821371  0.04813529  0.49983790    -0.82000
C500        C  0.34763814  0.06469752  0.98300733     0.93500
O501        O  0.23292972  0.41216050  0.56041168    -0.82000
Mg502      Mg  0.18225739  0.48716723  0.98241118     1.58200
O503        O  0.33438153  0.01829948  0.55794817    -0.80300
O504        O  0.19124477  0.01148194  0.91014860    -0.82000
C505        C  0.23007434  0.38436966  0.61506286     0.24400
C506        C  0.25499741  0.39467728  0.60223375    -0.23700
C507        C  0.28140605  0.38748851  0.61408698     0.19300
C508        C  0.28284165  0.36948341  0.63776913     0.24300
C509        C  0.25784622  0.35892344  0.65042839    -0.23700
C510        C  0.23144617  0.36688733  0.63897499     0.19200
F511        F  0.20680281  0.35685081  0.65016305    -0.13600
F512        F  0.20418818  0.39178890  0.60487760    -0.16000
F513        F  0.30867705  0.36234966  0.64825477    -0.16000
F514        F  0.30585842  0.39742503  0.60241039    -0.13600
C515        C  0.21877455  0.13356730  0.86253632     0.24400
C516        C  0.24389556  0.14569856  0.85174779    -0.23700
C517        C  0.26989798  0.13895972  0.86468469     0.19300
C518        C  0.27084547  0.12034405  0.88771407     0.24300
C519        C  0.24585622  0.10774079  0.89819890    -0.23700
C520        C  0.21978935  0.11445923  0.88535524     0.19200
F521        F  0.19525006  0.10290632  0.89517778    -0.13600
F522        F  0.19326269  0.14009643  0.85093396    -0.16000
F523        F  0.29646547  0.11410096  0.89926027    -0.16000
F524        F  0.29444907  0.15122614  0.85576409    -0.13600
C525        C  0.38274457  0.13930156  0.47347107     0.24400
C526        C  0.41038352  0.13285852  0.48245236    -0.23700
C527        C  0.41960044  0.10007523  0.99426492     0.19300
C528        C  0.39868512  0.07890439  0.99218623     0.24300
C529        C  0.37183282  0.08506369  0.98028186    -0.23700
C530        C  0.36217193  0.11805534  0.47148079     0.19200
F531        F  0.33555200  0.12570825  0.46362513    -0.13600
F532        F  0.37554164  0.16644207  0.46675051    -0.16000
F533        F  0.40449611  0.05265470  0.00264400    -0.16000
F534        F  0.44484210  0.09384316  0.00657091    -0.13600
C535        C  0.09236662  0.38358085  0.98873197     0.24400
C536        C  0.08734659  0.36755016  0.01336834    -0.23700
C537        C  0.10402310  0.37341172  0.53852874     0.19300
C538        C  0.12508727  0.39451002  0.53875596     0.24300
C539        C  0.12782893  0.41366465  0.51582775    -0.23700
C540        C  0.11309642  0.40491419  0.98846825     0.19200
F541        F  0.11768723  0.41933126  0.96384491    -0.13600
F542        F  0.07750402  0.37815798  0.96465667    -0.16000
F543        F  0.14318245  0.39571197  0.56110971    -0.16000
F544        F  0.10250912  0.35466005  0.56044418    -0.13600
C545        C  0.13145939  0.28555784  0.90706259     0.24400
C546        C  0.12421453  0.25864169  0.91801716    -0.23700
C547        C  0.13773610  0.23452690  0.90690483     0.19300
C548        C  0.15758726  0.23705844  0.88480041     0.24300
C549        C  0.16391191  0.26388697  0.87256440    -0.23700
C550        C  0.15087322  0.28816403  0.88440690     0.19200
F551        F  0.15619740  0.31437921  0.87359497    -0.13600
F552        F  0.11821944  0.30923758  0.91698971    -0.16000
F553        F  0.16942567  0.21280144  0.87449367    -0.16000
F554        F  0.13125583  0.20829743  0.91707908    -0.13600
C555        C  0.34631554  0.26550050  0.61792612     0.24400
C556        C  0.33638027  0.23903023  0.62820147    -0.23700
C557        C  0.34450475  0.21421571  0.61345534     0.19300
C558        C  0.36319067  0.21577202  0.59003601     0.24300
C559        C  0.37456643  0.24208784  0.58129567    -0.23700
C560        C  0.36530856  0.26690919  0.59502623     0.19200
F561        F  0.37553301  0.29265197  0.58690076    -0.13600
F562        F  0.33918279  0.29018628  0.63114104    -0.16000
F563        F  0.37177433  0.19132595  0.57726309    -0.16000
F564        F  0.33497108  0.18839319  0.62208720    -0.13600
C565        C  0.36197965  0.13268170  0.78179041     0.24400
C566        C  0.35842070  0.14968988  0.75721600    -0.23700
C567        C  0.37485537  0.14340268  0.73286850     0.19300
C568        C  0.39355467  0.12035382  0.73281434     0.24300
C569        C  0.39660975  0.10324750  0.75713585    -0.23700
C570        C  0.38102302  0.10987294  0.78173874     0.19200
F571        F  0.38376793  0.09385170  0.80560567    -0.13600
F572        F  0.34671708  0.13762605  0.80587045    -0.16000
F573        F  0.40947851  0.11536486  0.70916830    -0.16000
F574        F  0.37291061  0.15943272  0.70892942    -0.13600
C575        C  0.10540582  0.37676233  0.72032021     0.24400
C576        C  0.10304932  0.39681762  0.74261375    -0.23700
C577        C  0.12139887  0.39439091  0.76612310     0.19300
C578        C  0.14116603  0.37238650  0.76746864     0.24300
C579        C  0.14338733  0.35255743  0.74526084    -0.23700
C580        C  0.12556630  0.35502301  0.72158504     0.19200
F581        F  0.12733448  0.33603314  0.69987591    -0.13600
F582        F  0.08802567  0.37778397  0.69738193    -0.16000
F583        F  0.15893366  0.37111699  0.79010474    -0.16000
F584        F  0.12032456  0.41320238  0.78802537    -0.13600
C585        C  0.13596667  0.46709723  0.88429672     0.24400
C586        C  0.14596558  0.49326548  0.89438344    -0.23700
C587        C  0.13126154  0.51825430  0.88763426     0.19300
C588        C  0.10741074  0.51732315  0.87020450     0.24300
C589        C  0.09806440  0.49128388  0.85860259    -0.23700
C590        C  0.11242406  0.46607439  0.86628655     0.19200
F591        F  0.10401600  0.44042234  0.85614988    -0.13600
F592        F  0.14947413  0.44259657  0.89131373    -0.16000
F593        F  0.09403159  0.54217305  0.86420233    -0.16000
F594        F  0.13961759  0.54361603  0.89856166    -0.13600
C595        C  0.37350385  0.99222390  0.64832547     0.24400
C596        C  0.39815116  0.00798402  0.64306188    -0.23700
C597        C  0.39999302  0.02509223  0.61876693     0.19300
C598        C  0.37769268  0.02553916  0.59919875     0.24300
C599        C  0.35294364  0.00923105  0.60408899    -0.23700
C600        C  0.35103357  0.99294619  0.62923958     0.19200
F601        F  0.32768713  0.97715135  0.63532214    -0.13600
F602        F  0.37098399  0.97644694  0.67241944    -0.16000
F603        F  0.38059721  0.04165021  0.57539534    -0.16000
F604        F  0.42364720  0.04074871  0.61366881    -0.13600
C605        C  0.45882508  0.36665479  0.65319490     0.24400
C606        C  0.48373110  0.38060999  0.66193526    -0.23700
C607        C  0.00886277  0.37039974  0.65102239     0.19300
C608        C  0.01030977  0.34831600  0.63118610     0.24300
C609        C  0.98558944  0.33467318  0.62182614    -0.23700
C610        C  0.46023945  0.34370603  0.63396872     0.19200
F611        F  0.43573948  0.33152133  0.62508194    -0.13600
F612        F  0.43309366  0.37551290  0.66279763    -0.16000
F613        F  0.03604474  0.34078717  0.62046001    -0.16000
F614        F  0.03338952  0.38363370  0.65822250    -0.13600
C615        C  0.04121009  0.12843912  0.84929202     0.24400
C616        C  0.01579690  0.11687343  0.83867956    -0.23700
C617        C  0.49041853  0.12929089  0.84716876     0.19300
C618        C  0.48974612  0.15053968  0.86798267     0.24300
C619        C  0.51494888  0.16096775  0.87973158    -0.23700
C620        C  0.04055331  0.15047529  0.86949569     0.19200
F621        F  0.06538918  0.16022893  0.88024101    -0.13600
F622        F  0.06670383  0.11797379  0.84072147    -0.16000
F623        F  0.46426817  0.16056086  0.87713889    -0.16000
F624        F  0.46527421  0.11941406  0.83726072    -0.13600
O625        O  0.05003681  0.50041953  0.26379288    -0.87600
C626        C  0.49100286  0.93352208  0.26183885     0.88500
Mg627      Mg  0.04334385  0.53647815  0.29162144     1.58100
O628        O  0.99481046  0.97806631  0.20014452    -0.87300
O629        O  0.05771153  0.98818382  0.22136371    -0.74600
C630        C  0.41525690  0.57843933  0.25606291     0.93500
O631        O  0.00759931  0.97818105  0.31541558    -0.74400
O632        O  0.43144569  0.57678367  0.27749800    -0.82000
Mg633      Mg  0.04249819  0.95989140  0.28669052     1.58000
C634        C  0.41994313  0.50605854  0.16275063     0.93400
O635        O  0.07855070  0.93643867  0.26381322    -0.80200
H636        H  0.01612893  0.49637847  0.16498815    -0.05600
C637        C  0.43174941  0.99541913  0.25790594     0.88400
O638        O  0.02738238  0.56325388  0.25403150    -0.74700
O639        O  0.01237254  0.94953284  0.25426325    -0.87500
O640        O  0.43260197  0.98284727  0.17139023    -0.80300
C641        C  0.48202206  0.90441408  0.18276710     0.93500
C642        C  0.08101103  0.91968728  0.24269054     0.93400
Mg643      Mg  0.45486222  0.53959180  0.21175962     1.58000
O644        O  0.41881811  0.56326762  0.23392613    -0.80200
O645        O  0.49017579  0.52182337  0.18350989    -0.74500
O646        O  0.00363615  0.91105597  0.19759136    -0.80300
O647        O  0.07397249  0.97055489  0.32071047    -0.82000
O648        O  0.49140021  0.58704265  0.30489346    -0.80300
C649        C  0.00050202  0.49934491  0.18163923     0.87800
O650        O  0.48391489  0.55007276  0.24529699    -0.87500
O651        O  0.44529290  0.99884271  0.23559036    -0.87600
O652        O  0.43923810  0.50968824  0.27703238    -0.74600
Mg653      Mg  0.02840180  0.95032407  0.21144994     1.58000
O654        O  0.46059989  0.92104742  0.18263446    -0.82000
H655        H  0.07856036  0.52125718  0.24010803    -0.05700
O656        O  0.50229912  0.52078116  0.29905086    -0.87300
H657        H  0.47880245  0.00337428  0.33520148    -0.05600
H658        H  0.00163795  0.58072167  0.22424199    -0.05700
C659        C  0.49458249  0.00014254  0.31874926     0.87800
C660        C  0.06287462  0.50453749  0.24116527     0.88400
C661        C  0.00380661  0.56550256  0.24133102     0.88400
H662        H  0.41557247  0.97915983  0.25875293    -0.05700
O663        O  0.46748683  0.93606776  0.24905660    -0.74700
Mg664      Mg  0.46763542  0.54772369  0.28828845     1.58000
H665        H  0.49256964  0.91912716  0.27970032    -0.05700
C666        C  0.07785981  0.99270667  0.33562633     0.93400
O667        O  0.03518571  0.57553799  0.32035100    -0.82000
C668        C  0.01361724  0.59199674  0.32096163     0.93500
O669        O  0.06351652  0.92026669  0.22232682    -0.82000
Mg670      Mg  0.45256229  0.96130556  0.21001797     1.58200
O671        O  0.06521105  0.51351315  0.32949702    -0.80300
O672        O  0.42433281  0.52883980  0.17657431    -0.82800
O673        O  0.02977764  0.71170133  0.47293101    -0.87600
C674        C  0.02047345  0.79769204  0.46123569     0.88500
Mg675      Mg  0.49331942  0.68262692  0.47258980     1.58100
O676        O  0.03712333  0.77879920  0.03126650    -0.87300
O677        O  0.06599283  0.72499663  0.49860480    -0.74600
C678        C  0.40140967  0.73999204  0.06375750     0.93500
O679        O  0.48297406  0.74386586  0.43487577    -0.74400
O680        O  0.40224854  0.72430957  0.04166279    -0.82000
Mg681      Mg  0.03145122  0.74072229  0.43752191     1.58000
C682        C  0.98937422  0.81474592  0.09955364     0.93400
O683        O  0.08034364  0.73959148  0.43267689    -0.80200
H684        H  0.06325348  0.75983547  0.05881664    -0.05600
C685        C  0.45073554  0.79118656  0.01602049     0.88400
O686        O  0.49412056  0.68415763  0.02184222    -0.74700
O687        O  0.03350787  0.77580179  0.46744087    -0.87500
O688        O  0.00652116  0.82099031  0.07938355    -0.80300
C689        C  0.06890258  0.84412547  0.51491517     0.93500
C690        C  0.10057464  0.75638903  0.43913032     0.93400
Mg691      Mg  0.47077924  0.75575793  0.06556845     1.58000
O692        O  0.42222886  0.75574005  0.07078080    -0.80200
O693        O  0.02137985  0.75389840  0.06739114    -0.74500
O694        O  0.07673564  0.82224820  0.50085031    -0.80300
O695        O  0.02939569  0.70369853  0.40554829    -0.82000
O696        O  0.42635340  0.67481325  0.00205537    -0.80300
C697        C  0.04159817  0.76425823  0.05269144     0.87800
O698        O  0.46921961  0.72107538  0.03529792    -0.87500
O699        O  0.47164825  0.78536486  0.03063629    -0.87600
O700        O  0.43575334  0.77189509  0.00464385    -0.74600
Mg701      Mg  0.06768029  0.77404889  0.49784713     1.58000
O702        O  0.04607666  0.84534272  0.03010876    -0.82000
H703        H  0.05570883  0.68369922  0.49148347    -0.05700
O704        O  0.46551800  0.71936005  0.47050840    -0.87300
H705        H  0.44075744  0.73906902  0.44223446    -0.05600
H706        H  0.48540069  0.69342677  0.06317482    -0.05700
C707        C  0.46208909  0.73401098  0.44895517     0.87800
C708        C  0.05065530  0.70577132  0.48756461     0.88400
C709        C  0.48268338  0.69931715  0.04110330     0.88400
H710        H  0.44539676  0.81323061  0.01234535    -0.05700
O711        O  0.00907565  0.81321425  0.48020685    -0.74700
Mg712      Mg  0.43476984  0.72289830  0.00509392     1.58000
H713        H  0.01810258  0.80338862  0.43906851    -0.05700
C714        C  0.51258303  0.68229088  0.40339920     0.93400
O715        O  0.45558845  0.65204895  0.47308496    -0.82000
C716        C  0.43375085  0.65340775  0.98708916     0.93500
O717        O  0.09952937  0.77228480  0.46105038    -0.82000
Mg718      Mg  0.00858596  0.81456623  0.03047139     1.58200
O719        O  0.49567444  0.67626563  0.42381134    -0.80300
O720        O  0.47148859  0.79239711  0.09772326    -0.82000
O721        O  0.26464642  0.69904516  0.24842003    -0.87600
C722        C  0.25979255  0.75499220  0.31645769     0.88500
Mg723      Mg  0.29077563  0.70568100  0.21111172     1.58100
O724        O  0.19922702  0.75447840  0.27303461    -0.87300
O725        O  0.22019593  0.69158866  0.26002936    -0.74600
C726        C  0.25854323  0.83551067  0.17229649     0.93500
O727        O  0.31389410  0.74076144  0.27221523    -0.74400
O728        O  0.27929843  0.81835174  0.17276469    -0.82000
Mg729      Mg  0.28505454  0.70548161  0.28918091     1.58000
C730        C  0.16605254  0.83127728  0.24615020     0.93400
O731        O  0.26246354  0.66883458  0.31135757    -0.80200
H732        H  0.16617511  0.73393643  0.25633441    -0.05600
C733        C  0.25789931  0.81541710  0.25609839     0.88400
O734        O  0.25258980  0.72252703  0.18604561    -0.74700
O735        O  0.25262310  0.73516762  0.30090743    -0.87500
O736        O  0.17153111  0.81877569  0.26959044    -0.80300
C737        C  0.18147497  0.76465620  0.34635379     0.93500
C738        C  0.24123367  0.66561641  0.32780766     0.93400
Mg739      Mg  0.21475378  0.79609390  0.21189298     1.58000
O740        O  0.23744506  0.83281491  0.18910632    -0.80200
O741        O  0.18606496  0.76082690  0.22906516    -0.74500
O742        O  0.19503258  0.74236354  0.33919177    -0.80300
O743        O  0.31862340  0.67413940  0.27745903    -0.82000
O744        O  0.30553329  0.75837870  0.16195769    -0.80300
C745        C  0.18286905  0.74940264  0.25327402     0.87800
O746        O  0.24735035  0.76631873  0.20025128    -0.87500
O747        O  0.23514542  0.80280680  0.25280656    -0.87600
O748        O  0.27954192  0.81009739  0.24072844    -0.74600
Mg749      Mg  0.20987032  0.71929578  0.29908808     1.58000
O750        O  0.18144303  0.78674455  0.33048561    -0.82000
H751        H  0.24043357  0.67095194  0.22788992    -0.05700
O752        O  0.30086068  0.74708933  0.22820035    -0.87300
H753        H  0.33378090  0.76774244  0.24503242    -0.05600
H754        H  0.22260303  0.74920814  0.17034087    -0.05700
C755        C  0.31712529  0.75223335  0.24802851     0.87800
C756        C  0.24198155  0.68636955  0.24487201     0.88400
C757        C  0.24018292  0.74640597  0.18481601     0.88400
H758        H  0.25963537  0.83093684  0.27296068    -0.05700
O759        O  0.24740033  0.77888240  0.31534564    -0.74700
Mg760      Mg  0.29012356  0.78205776  0.20181716     1.58000
H761        H  0.27738190  0.75211166  0.33091114    -0.05700
C762        C  0.33321131  0.66949737  0.25519769     0.93400
O763        O  0.31839328  0.71384005  0.17124166    -0.82000
C764        C  0.31879575  0.73573499  0.15518596     0.93500
O765        O  0.22035656  0.68259752  0.32761004    -0.82000
Mg766      Mg  0.20913049  0.79573035  0.29041888     1.58200
O767        O  0.32844002  0.68267155  0.23197462    -0.80300
O768        O  0.18039402  0.82700490  0.22359611    -0.82000
O769        O  0.28983955  0.97567162  0.02442422    -0.87600
C770        C  0.20795620  0.99094552  0.05086198     0.88500
Mg771      Mg  0.31979907  0.50848293  0.00973000     1.58100
O772        O  0.21535670  0.96167950  0.48298267    -0.87300
O773        O  0.27150541  0.93565490  0.00965751    -0.74600
C774        C  0.24683661  0.58331760  0.41836784     0.93500
O775        O  0.26444261  0.52836098  0.05512497    -0.74400
O776        O  0.26597549  0.58617536  0.43711801    -0.82000
Mg777      Mg  0.26793801  0.98199820  0.06422103     1.58000
C778        C  0.16796251  0.99676407  0.41767892     0.93400
O779        O  0.27048367  0.93504308  0.07740738    -0.80200
H780        H  0.23002823  0.93132704  0.45700503    -0.05600
C781        C  0.20652547  0.54567042  0.48229215     0.88400
O782        O  0.31141066  0.50035536  0.46507756    -0.74700
O783        O  0.22806645  0.97608454  0.04296144    -0.87500
O784        O  0.16534341  0.98375021  0.44121383    -0.80300
C785        C  0.15255581  0.93514585  0.01464565     0.93500
C786        C  0.25272076  0.91470965  0.07852276     0.93400
Mg787      Mg  0.23306264  0.51511662  0.43191061     1.58000
O788        O  0.23048074  0.56179471  0.41766378    -0.80200
O789        O  0.23394826  0.97133710  0.44130982    -0.74500
O790        O  0.17501268  0.92988342  0.02888483    -0.80300
O791        O  0.30945283  0.98791800  0.08684455    -0.82000
O792        O  0.32287898  0.56988352  0.46924489    -0.80300
C793        C  0.22625741  0.95375033  0.46035760     0.87800
O794        O  0.27211163  0.52244799  0.45447741    -0.87500
O795        O  0.21013754  0.52211724  0.47126339    -0.87600
O796        O  0.22714363  0.56229708  0.48704458    -0.74600
Mg797      Mg  0.22357753  0.93671346  0.02022275     1.58000
O798        O  0.15053778  0.95405192  0.49903148    -0.82000
H799        H  0.31339189  0.94522873  0.00628188    -0.05700
O800        O  0.28477551  0.53782483  0.01426003    -0.87300
H801        H  0.26998830  0.56831838  0.03995579    -0.05600
H802        H  0.29483596  0.50133983  0.42529013    -0.05700
C803        C  0.27342248  0.54584783  0.03661895     0.87800
C804        C  0.29260868  0.95201370  0.01334962     0.88400
C805        C  0.29284187  0.50808179  0.44720877     0.88400
H806        H  0.18538238  0.55198558  0.48870322    -0.05700
O807        O  0.18940828  0.99957305  0.03342499    -0.74700
Mg808      Mg  0.27497856  0.56209315  0.47734797     1.58000
H809        H  0.20651281  0.99731399  0.07293409    -0.05700
C810        C  0.33078207  0.50249581  0.07948389     0.93400
O811        O  0.35001746  0.54462206  0.99810483    -0.82000
C812        C  0.34604666  0.56562902  0.48257313     0.93500
O813        O  0.23241230  0.91253922  0.06089985    -0.82000
Mg814      Mg  0.17997157  0.99063443  0.48687910     1.58200
O815        O  0.33480870  0.51400973  0.05535737    -0.80300
O816        O  0.19219569  0.50715207  0.40743624    -0.82000
C817        C  0.22983011  0.88469335  0.11569030     0.24400
C818        C  0.25474272  0.89420893  0.10223418    -0.23700
C819        C  0.28118474  0.88581990  0.11318693     0.19300
C820        C  0.28261717  0.86741019  0.13657909     0.24300
C821        C  0.25760894  0.85765997  0.14989926    -0.23700
C822        C  0.23121376  0.86680483  0.13931686     0.19200
F823        F  0.20652141  0.85759086  0.15109706    -0.13600
F824        F  0.20396940  0.89330281  0.10640663    -0.16000
F825        F  0.30846937  0.85909344  0.14612168    -0.16000
F826        F  0.30564419  0.89496089  0.10088641    -0.13600
C827        C  0.21730726  0.63066955  0.36033551     0.24400
C828        C  0.24227865  0.64303926  0.34953291    -0.23700
C829        C  0.26848952  0.63591059  0.36186682     0.19300
C830        C  0.26968959  0.61712741  0.38472770     0.24300
C831        C  0.24478437  0.60466932  0.39552358    -0.23700
C832        C  0.21858803  0.61134999  0.38294872     0.19200
F833        F  0.19418507  0.59964823  0.39292644    -0.13600
F834        F  0.19170276  0.63719786  0.34894827    -0.16000
F835        F  0.29542923  0.61064207  0.39588175    -0.16000
F836        F  0.29300413  0.64798151  0.35257210    -0.13600
C837        C  0.38433820  0.63718976  0.97792324     0.24400
C838        C  0.41274165  0.63007691  0.98362317    -0.23700
C839        C  0.41885647  0.60095936  0.48614692     0.19300
C840        C  0.39791960  0.57968879  0.48464381     0.24300
C841        C  0.36925733  0.58691497  0.47987915    -0.23700
C842        C  0.36357700  0.61614930  0.97542805     0.19200
F843        F  0.33636184  0.62444326  0.97093288    -0.13600
F844        F  0.37655074  0.66481235  0.97473860    -0.16000
F845        F  0.40560413  0.55211584  0.48823435    -0.16000
F846        F  0.44622004  0.59348425  0.49101307    -0.13600
C847        C  0.08172005  0.89624256  0.51103490     0.24400
C848        C  0.08925606  0.86807914  0.51753143    -0.23700
C849        C  0.09978932  0.87920432  0.04042549     0.19300
C850        C  0.12074966  0.90046465  0.04085844     0.24300
C851        C  0.12823630  0.91496980  0.01573539    -0.23700
C852        C  0.10219804  0.91803679  0.51181860     0.19200
F853        F  0.09447083  0.94472570  0.50407555    -0.13600
F854        F  0.05489914  0.90241454  0.50266561    -0.16000
F855        F  0.13396583  0.90658970  0.06571648    -0.16000
F856        F  0.09350150  0.86508163  0.06484334    -0.13600
C857        C  0.13388873  0.78551903  0.40923190     0.24400
C858        C  0.12486885  0.75870070  0.41908513    -0.23700
C859        C  0.13633827  0.73422925  0.40650730     0.19300
C860        C  0.15572734  0.73634812  0.38397971     0.24300
C861        C  0.16378545  0.76317946  0.37287910    -0.23700
C862        C  0.15291444  0.78776047  0.38618045     0.19200
F863        F  0.16001315  0.81397245  0.37644144    -0.13600
F864        F  0.12270643  0.80961027  0.42059537    -0.16000
F865        F  0.16525118  0.71181471  0.37204801    -0.16000
F866        F  0.12812169  0.70807178  0.41554920    -0.13600
C867        C  0.34823144  0.76271706  0.11973618     0.24400
C868        C  0.33689966  0.73649152  0.12901214    -0.23700
C869        C  0.34491008  0.71160159  0.11431644     0.19300
C870        C  0.36435138  0.71290461  0.09149785     0.24300
C871        C  0.37658416  0.73902706  0.08334074    -0.23700
C872        C  0.36789201  0.76388001  0.09742385     0.19200
F873        F  0.37924766  0.78941220  0.09020120    -0.13600
F874        F  0.34178860  0.78731689  0.13345656    -0.16000
F875        F  0.37269732  0.68837465  0.07872647    -0.16000
F876        F  0.33448948  0.68594740  0.12241412    -0.13600
C877        C  0.35784463  0.62906609  0.28007461     0.24400
C878        C  0.35508529  0.64679270  0.25591268    -0.23700
C879        C  0.37179766  0.64090088  0.23166511     0.19300
C880        C  0.39048228  0.61789728  0.23151921     0.24300
C881        C  0.39325003  0.60053502  0.25567161    -0.23700
C882        C  0.37694366  0.60635418  0.27996328     0.19200
F883        F  0.37912693  0.58968420  0.30344133    -0.13600
F884        F  0.34177561  0.63323009  0.30377237    -0.16000
F885        F  0.40675872  0.61327240  0.20803533    -0.16000
F886        F  0.37022888  0.65733615  0.20796901    -0.13600
C887        C  0.10640210  0.87813434  0.22019085     0.24400
C888        C  0.10375227  0.89780274  0.24278336    -0.23700
C889        C  0.12154329  0.89469766  0.26665005     0.19300
C890        C  0.14105103  0.87243415  0.26803905     0.24300
C891        C  0.14356650  0.85296942  0.24552559    -0.23700
C892        C  0.12627333  0.85611602  0.22151199     0.19200
F893        F  0.12827141  0.83752252  0.19948195    -0.13600
F894        F  0.08961562  0.87984489  0.19685344    -0.16000
F895        F  0.15825298  0.87054448  0.29106851    -0.16000
F896        F  0.12008273  0.91302809  0.28892151    -0.13600
C897        C  0.12368345  0.01586069  0.39742805     0.24400
C898        C  0.14469664  0.99478328  0.39733330    -0.23700
C899        C  0.14257309  0.97172105  0.37870887     0.19300
C900        C  0.12014077  0.97030902  0.35938648     0.24300
C901        C  0.09938572  0.99204445  0.35857035    -0.23700
C902        C  0.10116642  0.01453307  0.37830725     0.19200
F903        F  0.08128045  0.03542458  0.37905608    -0.13600
F904        F  0.12503203  0.03781916  0.41613832    -0.16000
F905        F  0.11943878  0.94816567  0.34088665    -0.16000
F906        F  0.16253758  0.95090083  0.37886680    -0.13600
C907        C  0.37477589  0.48720671  0.14482345     0.24400
C908        C  0.39773637  0.50574948  0.14110885    -0.23700
C909        C  0.39827476  0.52427881  0.11781063     0.19300
C910        C  0.37628280  0.52372449  0.09790145     0.24300
C911        C  0.35310228  0.50496335  0.10147260    -0.23700
C912        C  0.35258930  0.48690164  0.12540506     0.19200
F913        F  0.33097857  0.46834648  0.12987564    -0.13600
F914        F  0.37356810  0.46966251  0.16776005    -0.16000
F915        F  0.37789346  0.54139544  0.07510845    -0.16000
F916        F  0.42043182  0.54229920  0.11395204    -0.13600
C917        C  0.45790815  0.86477059  0.15509484     0.24400
C918        C  0.48279218  0.87818792  0.16474453    -0.23700
C919        C  0.00970838  0.87031239  0.15396181     0.19300
C920        C  0.01171562  0.84834630  0.13404027     0.24300
C921        C  0.98732559  0.83443547  0.12429701    -0.23700
C922        C  0.45946811  0.84228067  0.13533470     0.19200
F923        F  0.43504620  0.83065558  0.12553174    -0.13600
F924        F  0.43206744  0.87378858  0.16424099    -0.16000
F925        F  0.03768001  0.84113989  0.12367358    -0.16000
F926        F  0.03397858  0.88380659  0.16153018    -0.13600
C927        C  0.03878488  0.63210374  0.34673267     0.24400
C928        C  0.01351626  0.61812535  0.33908943    -0.23700
C929        C  0.48810711  0.62920364  0.34805951     0.19300
C930        C  0.48767281  0.65071068  0.36863620     0.24300
C931        C  0.51297710  0.66318510  0.37812040    -0.23700
C932        C  0.03831365  0.65469159  0.36639986     0.19200
F933        F  0.06319973  0.66684720  0.37417911    -0.13600
F934        F  0.06402439  0.62357785  0.33562308    -0.16000
F935        F  0.46235616  0.65885289  0.37990124    -0.16000
F936        F  0.46304359  0.61712881  0.34068604    -0.13600
O937        O  0.04896076  0.49857406  0.76644262    -0.87600
C938        C  0.49302058  0.93378337  0.75911345     0.88500
Mg939      Mg  0.04231417  0.53578113  0.79250494     1.58100
O940        O  0.99500690  0.97656046  0.69939806    -0.87300
O941        O  0.05808028  0.98734733  0.71980461    -0.74600
C942        C  0.41665532  0.58086196  0.75743641     0.93500
O943        O  0.00946797  0.97524326  0.81441968    -0.74400
O944        O  0.43268656  0.57882205  0.77893616    -0.82000
Mg945      Mg  0.04432359  0.95803822  0.78490415     1.58000
C946        C  0.42119422  0.50867130  0.66313814     0.93400
O947        O  0.08028294  0.93632305  0.76075967    -0.80200
H948        H  0.01749366  0.49398055  0.66746477    -0.05600
C949        C  0.43427546  0.99619973  0.75581428     0.88400
O950        O  0.02791424  0.56172742  0.75383442    -0.74700
O951        O  0.01381949  0.94766506  0.75285145    -0.87500
O952        O  0.43204946  0.98348792  0.67015700    -0.80300
C953        C  0.48247104  0.90468861  0.68028411     0.93500
C954        C  0.08251109  0.91941396  0.73977205     0.93400
Mg955      Mg  0.45586684  0.54155004  0.71297038     1.58000
O956        O  0.42015500  0.56583614  0.73517716    -0.80200
O957        O  0.49132027  0.52309022  0.68503919    -0.74500
O958        O  0.00464597  0.90998970  0.69568638    -0.80300
O959        O  0.07642552  0.96855238  0.81864192    -0.82000
O960        O  0.49240285  0.58775353  0.80668733    -0.80300
C961        C  0.00142297  0.49751769  0.68357040     0.87800
O962        O  0.48498524  0.55151624  0.74672399    -0.87500
O963        O  0.44772152  0.99943057  0.73341867    -0.87600
O964        O  0.43899904  0.51169143  0.77779095    -0.74600
Mg965      Mg  0.02910983  0.94923425  0.70979878     1.58000
O966        O  0.46118535  0.92151670  0.68016100    -0.82000
H967        H  0.07907287  0.51781234  0.74339143    -0.05700
O968        O  0.50187320  0.52109204  0.80034961    -0.87300
H969        H  0.48214222  0.00340655  0.83276188    -0.05600
H970        H  0.00311527  0.57941774  0.72340511    -0.05700
C971        C  0.49771860  0.00003368  0.81614406     0.87800
C972        C  0.06276360  0.50169116  0.74424155     0.88400
C973        C  0.00451128  0.56465891  0.74097590     0.88400
H974        H  0.41787368  0.98017308  0.75676496    -0.05700
O975        O  0.46940376  0.93622152  0.74651337    -0.74700
Mg976      Mg  0.46810317  0.54899669  0.78959893     1.58000
H977        H  0.49484304  0.91932162  0.77689485    -0.05700
C978        C  0.07974193  0.99048921  0.83402229     0.93400
O979        O  0.03468780  0.57561043  0.82009221    -0.82000
C980        C  0.01342277  0.59240704  0.82083599     0.93500
O981        O  0.06462406  0.91948413  0.71976545    -0.82000
Mg982      Mg  0.45381575  0.96169381  0.70783337     1.58200
O983        O  0.06228734  0.51397271  0.83119705    -0.80300
O984        O  0.42475451  0.53104443  0.67790922    -0.82800
O985        O  0.03066526  0.71322238  0.97261855    -0.87600
C986        C  0.01859289  0.79913872  0.96145347     0.88500
Mg987      Mg  0.49458337  0.68444940  0.97287551     1.58100
O988        O  0.03667267  0.77712135  0.53172114    -0.87300
O989        O  0.06703527  0.72791317  0.99745053    -0.74600
C990        C  0.40113959  0.74128177  0.56223987     0.93500
O991        O  0.48187251  0.74473934  0.93472240    -0.74400
O992        O  0.40178699  0.72468074  0.54083027    -0.82000
Mg993      Mg  0.03117367  0.74197689  0.93685130     1.58000
C994        C  0.98838257  0.81393355  0.59807546     0.93400
O995        O  0.08015184  0.74220823  0.93132749    -0.80200
H996        H  0.06198449  0.75825237  0.56007738    -0.05600
C997        C  0.45195712  0.79042884  0.51435770     0.88400
O998        O  0.49245063  0.68252454  0.52160828    -0.74700
O999        O  0.03225014  0.77736562  0.96677888    -0.87500
O1000       O  0.00518333  0.82027303  0.57767180    -0.80300
C1001       C  0.06747011  0.84646211  0.01354929     0.93500
C1002       C  0.09981129  0.75992155  0.93710456     0.93400
Mg1003     Mg  0.47044587  0.75531717  0.56436516     1.58000
O1004       O  0.42197094  0.75739705  0.56825255    -0.80200
O1005       O  0.01992211  0.75241867  0.56753614    -0.74500
O1006       O  0.07360286  0.82616571  0.99655450    -0.80300
O1007       O  0.02995497  0.70425920  0.90548720    -0.82000
O1008       O  0.42525932  0.67458407  0.50179170    -0.80300
C1009       C  0.04051463  0.76273507  0.55337684     0.87800
O1010       O  0.46849738  0.72021847  0.53461581    -0.87500
O1011       O  0.47282674  0.78406682  0.52880660    -0.87600
O1012       O  0.43623389  0.77150441  0.50337716    -0.74600
Mg1013     Mg  0.06714436  0.77713266  0.99608984     1.58000
O1014       O  0.04529767  0.84495544  0.52820395    -0.82000
H1015       H  0.05768521  0.68622839  0.99114621    -0.05700
O1016       O  0.46588437  0.72047440  0.97113709    -0.87300
H1017       H  0.43996861  0.73833883  0.94268162    -0.05600
H1018       H  0.48372558  0.69234747  0.56282417    -0.05700
C1019       C  0.46156891  0.73440580  0.94928851     0.87800
C1020       C  0.05195468  0.70809381  0.98701066     0.88400
C1021       C  0.48133541  0.69815380  0.54069075     0.88400
H1022       H  0.44723405  0.81259642  0.51058440    -0.05700
O1023       O  0.00830187  0.81460880  0.98117765    -0.74700
Mg1024     Mg  0.43429335  0.72252168  0.50428199     1.58000
H1025       H  0.01505009  0.80502098  0.93949750    -0.05700
C1026       C  0.51371932  0.68425545  0.90372767     0.93400
O1027       O  0.45723183  0.65280588  0.97352878    -0.82000
C1028       C  0.43231632  0.65302268  0.48690122     0.93500
O1029       O  0.09830343  0.77627908  0.95862996    -0.82000
Mg1030     Mg  0.00815052  0.81336973  0.52914207     1.58200
O1031       O  0.49676592  0.67813674  0.92407465    -0.80300
O1032       O  0.47164439  0.79241870  0.59592545    -0.82000
O1033       O  0.26727158  0.70230089  0.74988706    -0.87600
C1034       C  0.26157148  0.75876212  0.81722171     0.88500
Mg1035     Mg  0.29366977  0.70893343  0.71258138     1.58100
O1036       O  0.20183772  0.75666948  0.77273930    -0.87300
O1037       O  0.22306778  0.69374975  0.76149699    -0.74600
C1038       C  0.26167324  0.83901166  0.67333629     0.93500
O1039       O  0.31624926  0.74399154  0.77369565    -0.74400
O1040       O  0.28286074  0.82233899  0.67387065    -0.82000
Mg1041     Mg  0.28732590  0.70877916  0.79081604     1.58000
C1042       C  0.16786657  0.83196083  0.74410335     0.93400
O1043       O  0.26452245  0.67226337  0.81362323    -0.80200
H1044       H  0.17002453  0.73494604  0.75513455    -0.05600
C1045       C  0.25970213  0.81852582  0.75642876     0.88400
O1046       O  0.25590759  0.72536179  0.68693596    -0.74700
O1047       O  0.25476716  0.73849686  0.80205962    -0.87500
O1048       O  0.17305954  0.81962981  0.76767176    -0.80300
C1049       C  0.18254579  0.76811658  0.84568006     0.93500
C1050       C  0.24306625  0.66917218  0.82986529     0.93400
Mg1051     Mg  0.21791557  0.79820191  0.71144327     1.58000
O1052       O  0.24030339  0.83541168  0.68957680    -0.80200
O1053       O  0.18987070  0.76224162  0.72824815    -0.74500
O1054       O  0.19686495  0.74604239  0.83940804    -0.80300
O1055       O  0.32081472  0.67727290  0.77923172    -0.82000
O1056       O  0.30960247  0.76197263  0.66374197    -0.80300
C1057       C  0.18630326  0.75091967  0.75247260     0.87800
O1058       O  0.25101864  0.76937069  0.70045307    -0.87500
O1059       O  0.23735115  0.80535081  0.75265436    -0.87600
O1060       O  0.28181757  0.81363098  0.74162807    -0.74600
Mg1061     Mg  0.21214912  0.72225162  0.79985555     1.58000
O1062       O  0.18229582  0.78974476  0.82923253    -0.82000
H1063       H  0.24399964  0.67309829  0.72979613    -0.05700
O1064       O  0.30368580  0.75055116  0.72954060    -0.87300
H1065       H  0.33639688  0.77112902  0.74686157    -0.05600
H1066       H  0.22677688  0.75227624  0.67013835    -0.05700
C1067       C  0.31970651  0.75561095  0.74959688     0.87800
C1068       C  0.24501857  0.68889913  0.74646553     0.88400
C1069       C  0.24400217  0.74941453  0.68502158     0.88400
H1070       H  0.26067144  0.83414267  0.77326773    -0.05700
O1071       O  0.24888440  0.78247465  0.81549217    -0.74700
Mg1072     Mg  0.29342654  0.78568841  0.70301546     1.58000
H1073       H  0.27905459  0.75641519  0.83189884    -0.05700
C1074       C  0.33557942  0.67272833  0.75705354     0.93400
O1075       O  0.32114807  0.71691628  0.67239925    -0.82000
C1076       C  0.32187126  0.73894028  0.65648593     0.93500
O1077       O  0.22224189  0.68619471  0.82924809    -0.82000
Mg1078     Mg  0.21070945  0.79826750  0.78966158     1.58200
O1079       O  0.33117367  0.68615617  0.73389332    -0.80300
O1080       O  0.18286800  0.82816820  0.72196509    -0.82000
O1081       O  0.28992226  0.97889722  0.52495050    -0.87600
C1082       C  0.20718029  0.99156869  0.55139014     0.88500
Mg1083     Mg  0.31871974  0.50960537  0.51250022     1.58100
O1084       O  0.21543589  0.96092350  0.98238082    -0.87300
O1085       O  0.27260715  0.93848012  0.51004059    -0.74600
C1086       C  0.24659373  0.58577260  0.91988199     0.93500
O1087       O  0.26420968  0.53050710  0.55680907    -0.74400
O1088       O  0.26621724  0.58764318  0.93821354    -0.82000
Mg1089     Mg  0.26745196  0.98517899  0.56463674     1.58000
C1090       C  0.16955844  0.99668734  0.91636043     0.93400
O1091       O  0.27165749  0.93867664  0.57816160    -0.80200
H1092       H  0.22948839  0.92993017  0.95684083    -0.05600
C1093       C  0.20706737  0.54484827  0.98358381     0.88400
O1094       O  0.31158108  0.50106168  0.96214340    -0.74700
O1095       O  0.22797341  0.97792064  0.54306887    -0.87500
O1096       O  0.16603395  0.98536129  0.94061279    -0.80300
C1097       C  0.15358617  0.93374430  0.51665512     0.93500
C1098       C  0.25450055  0.91789454  0.57954093     0.93400
Mg1099     Mg  0.23230165  0.51745692  0.93162821     1.58000
O1100       O  0.22938673  0.56490167  0.91943415    -0.80200
O1101       O  0.23480830  0.96963888  0.94083836    -0.74500
O1102       O  0.17696780  0.92999065  0.52979625    -0.80300
O1103       O  0.30822213  0.99281868  0.58777472    -0.82000
O1104       O  0.32347606  0.57085890  0.96921858    -0.80300
C1105       C  0.22633043  0.95248341  0.95993764     0.87800
O1106       O  0.27219553  0.52360119  0.95315842    -0.87500
O1107       O  0.21056945  0.52174632  0.97158691    -0.87600
O1108       O  0.22766615  0.56163716  0.98804792    -0.74600
Mg1109     Mg  0.22482464  0.93818797  0.52081934     1.58000
O1110       O  0.15124288  0.95595964  0.99748123    -0.82000
H1111       H  0.31422414  0.94910126  0.50674116    -0.05700
O1112       O  0.28350233  0.53868317  0.51518561    -0.87300
H1113       H  0.26924584  0.57000580  0.54020258    -0.05600
H1114       H  0.29422778  0.50349765  0.92275449    -0.05700
C1115       C  0.27255803  0.54743645  0.53747114     0.87800
C1116       C  0.29328125  0.95533060  0.51384578     0.88400
C1117       C  0.29269592  0.50944609  0.94493700     0.88400
H1118       H  0.18606950  0.55072561  0.99084789    -0.05700
O1119       O  0.18784497  0.99911826  0.53431751    -0.74700
Mg1120     Mg  0.27555563  0.56234554  0.97747891     1.58000
H1121       H  0.20573031  0.99773196  0.57352037    -0.05700
C1122       C  0.32969850  0.50500025  0.58192846     0.93400
O1123       O  0.34871977  0.54527964  0.50015091    -0.82000
C1124       C  0.34703168  0.56587748  0.98163194     0.93500
O1125       O  0.23445879  0.91479361  0.56176338    -0.82000
Mg1126     Mg  0.18134645  0.99139372  0.98595752     1.58200
O1127       O  0.33257979  0.51798706  0.55839488    -0.80300
O1128       O  0.19010084  0.51194533  0.90928343    -0.82000
C1129       C  0.23216365  0.88728857  0.61651322     0.24400
C1130       C  0.25691976  0.89795124  0.60367547    -0.23700
C1131       C  0.28342519  0.89125898  0.61564394     0.19300
C1132       C  0.28514918  0.87288765  0.63905546     0.24300
C1133       C  0.26033844  0.86153571  0.65136285    -0.23700
C1134       C  0.23380765  0.86948770  0.64015801     0.19200
F1135       F  0.20927512  0.85912761  0.65129592    -0.13600
F1136       F  0.20615739  0.89462970  0.60657224    -0.16000
F1137       F  0.31105897  0.86619668  0.64963529    -0.16000
F1138       F  0.30769695  0.90201779  0.60433437    -0.13600
C1139       C  0.21826972  0.63460104  0.86229734     0.24400
C1140       C  0.24355209  0.64655098  0.85166206    -0.23700
C1141       C  0.26952336  0.63875137  0.86407056     0.19300
C1142       C  0.27022824  0.61960352  0.88667587     0.24300
C1143       C  0.24502224  0.60749563  0.89725524    -0.23700
C1144       C  0.21903720  0.61493653  0.88466915     0.19200
F1145       F  0.19434932  0.60359168  0.89435137    -0.13600
F1146       F  0.19283172  0.64184388  0.85096507    -0.16000
F1147       F  0.29581075  0.61239081  0.89774843    -0.16000
F1148       F  0.29431458  0.65046246  0.85506595    -0.13600
C1149       C  0.38285929  0.63687583  0.47853220     0.24400
C1150       C  0.41130612  0.62979332  0.48392727    -0.23700
C1151       C  0.42012493  0.60118387  0.98580014     0.19300
C1152       C  0.39908576  0.57995071  0.98408488     0.24300
C1153       C  0.37042252  0.58721535  0.97917343    -0.23700
C1154       C  0.36218945  0.61578244  0.47625074     0.19200
F1155       F  0.33485554  0.62391838  0.47219157    -0.13600
F1156       F  0.37496248  0.66447732  0.47544243    -0.16000
F1157       F  0.40670320  0.55235174  0.98759587    -0.16000
F1158       F  0.44742285  0.59359033  0.99082504    -0.13600
C1159       C  0.09388348  0.88606576  0.98973436     0.24400
C1160       C  0.08663391  0.87141948  0.01470922    -0.23700
C1161       C  0.11707381  0.86241053  0.52654043     0.19300
C1162       C  0.13728017  0.88412129  0.52809256     0.24300
C1163       C  0.13044209  0.91218729  0.51999156    -0.23700
C1164       C  0.11405861  0.90789805  0.99028996     0.19200
F1165       F  0.12099201  0.92092600  0.96542727    -0.13600
F1166       F  0.08169489  0.87890166  0.96461756    -0.16000
F1167       F  0.16403208  0.87714138  0.53611317    -0.16000
F1168       F  0.12480185  0.83557167  0.53383547    -0.13600
C1169       C  0.13312793  0.78924674  0.90709333     0.24400
C1170       C  0.12415252  0.76241884  0.91704119    -0.23700
C1171       C  0.13627519  0.73796385  0.90504541     0.19300
C1172       C  0.15624924  0.74006432  0.88303821     0.24300
C1173       C  0.16423874  0.76683520  0.87179144    -0.23700
C1174       C  0.15273426  0.79144704  0.88449788     0.19200
F1175       F  0.15991817  0.81762258  0.87470677    -0.13600
F1176       F  0.12152498  0.81335052  0.91799730    -0.16000
F1177       F  0.16652679  0.71552326  0.87177036    -0.16000
F1178       F  0.12829049  0.71180198  0.91426261    -0.13600
C1179       C  0.35105959  0.76523518  0.62038725     0.24400
C1180       C  0.33909816  0.73933910  0.62975529    -0.23700
C1181       C  0.34520377  0.71444320  0.61421332     0.19300
C1182       C  0.36365245  0.71532844  0.59056409     0.24300
C1183       C  0.37671464  0.74103873  0.58235834    -0.23700
C1184       C  0.36961368  0.76600380  0.59715972     0.19200
F1185       F  0.38158310  0.79122315  0.58981170    -0.13600
F1186       F  0.34633061  0.78982601  0.63480536    -0.16000
F1187       F  0.37023115  0.69071111  0.57696540    -0.16000
F1188       F  0.33382663  0.68917391  0.62221940    -0.13600
C1189       C  0.35965428  0.63182243  0.78171009     0.24400
C1190       C  0.35722566  0.64982017  0.75771505    -0.23700
C1191       C  0.37399794  0.64398987  0.73349171     0.19300
C1192       C  0.39246424  0.62082861  0.73321854     0.24300
C1193       C  0.39491400  0.60319965  0.75719277    -0.23700
C1194       C  0.37855105  0.60894093  0.78147668     0.19200
F1195       F  0.38048287  0.59204340  0.80481738    -0.13600
F1196       F  0.34343419  0.63586642  0.80532848    -0.16000
F1197       F  0.40885166  0.61630098  0.70979494    -0.16000
F1198       F  0.37266553  0.66060869  0.70991104    -0.13600
C1199       C  0.10896398  0.87884777  0.71684590     0.24400
C1200       C  0.10541042  0.89785717  0.73985648    -0.23700
C1201       C  0.12228104  0.89424937  0.76430248     0.19300
C1202       C  0.14174331  0.87209034  0.76589393     0.24300
C1203       C  0.14515522  0.85322454  0.74303871    -0.23700
C1204       C  0.12884719  0.85687204  0.71839060     0.19200
F1205       F  0.13186884  0.83889042  0.69596048    -0.13600
F1206       F  0.09312568  0.88123752  0.69289965    -0.16000
F1207       F  0.15807040  0.86975382  0.78952238    -0.16000
F1208       F  0.11985765  0.91188179  0.78705100    -0.13600
C1209       C  0.12340288  0.01293955  0.89766090     0.24400
C1210       C  0.14647882  0.99420659  0.89580281    -0.23700
C1211       C  0.14661963  0.97277835  0.87518196     0.19300
C1212       C  0.12425740  0.97066398  0.85581977     0.24300
C1213       C  0.10141995  0.99015389  0.85681872    -0.23700
C1214       C  0.10108429  0.01103530  0.87832785     0.19200
F1215       F  0.07926139  0.02977396  0.88061790    -0.13600
F1216       F  0.12267519  0.03334551  0.91810184    -0.16000
F1217       F  0.12561658  0.95022042  0.83548263    -0.16000
F1218       F  0.16853187  0.95408190  0.87368401    -0.13600
C1219       C  0.38785975  0.48217608  0.63139408     0.24400
C1220       C  0.39925910  0.50835174  0.64052291    -0.23700
C1221       C  0.38737007  0.53377076  0.62989765     0.19300
C1222       C  0.36457748  0.53289022  0.61083639     0.24300
C1223       C  0.35282248  0.50671289  0.60275471    -0.23700
C1224       C  0.36478093  0.48145305  0.61299518     0.19200
F1225       F  0.35450628  0.45585537  0.60455411    -0.13600
F1226       F  0.39837994  0.45703979  0.64087788    -0.16000
F1227       F  0.35352808  0.55758287  0.60082415    -0.16000
F1228       F  0.39763433  0.55946876  0.63798954    -0.13600
C1229       C  0.45860824  0.86414314  0.65372445     0.24400
C1230       C  0.48329311  0.87884277  0.66184885    -0.23700
C1231       C  0.00977579  0.86980954  0.65151692     0.19300
C1232       C  0.01139078  0.84789872  0.63155906     0.24300
C1233       C  0.98687806  0.83351812  0.62284734    -0.23700
C1234       C  0.46021677  0.84150255  0.63412666     0.19200
F1235       F  0.43590783  0.82848538  0.62590424    -0.13600
F1236       F  0.43292723  0.87193686  0.66434506    -0.16000
F1237       F  0.03705283  0.84126340  0.62008532    -0.16000
F1238       F  0.03405039  0.88387427  0.65797961    -0.13600
C1239       C  0.03957106  0.63042431  0.84878574     0.24400
C1240       C  0.01391672  0.61848400  0.83913079    -0.23700
C1241       C  0.48965843  0.63205582  0.84748273     0.19300
C1242       C  0.48930525  0.65398127  0.86762193     0.24300
C1243       C  0.51465197  0.66476029  0.87880132    -0.23700
C1244       C  0.03942088  0.65280145  0.86870015     0.19200
F1245       F  0.06452224  0.66283128  0.87853298    -0.13600
F1246       F  0.06485109  0.62001671  0.83953406    -0.16000
F1247       F  0.46394029  0.66423456  0.87683852    -0.16000
F1248       F  0.46436329  0.62184594  0.83833494    -0.13600
O1249       O  0.54904812  0.99873915  0.26732286    -0.87600
C1250       C  0.99294254  0.43417959  0.25728450     0.88500
Mg1251     Mg  0.54207700  0.03591117  0.29334154     1.58100
O1252       O  0.49508392  0.47787119  0.19722711    -0.87300
O1253       O  0.55783611  0.48895035  0.21848687    -0.74600
C1254       C  0.91648539  0.08126460  0.25777425     0.93500
O1255       O  0.50814991  0.47691646  0.31277009    -0.74400
O1256       O  0.93236384  0.07908216  0.27937163    -0.82000
Mg1257     Mg  0.54307909  0.45942665  0.28369704     1.58000
C1258       C  0.92007876  0.00784522  0.16501715     0.93400
O1259       O  0.57913703  0.43669143  0.26038260    -0.80200
H1260       H  0.51617104  0.99346843  0.16849890    -0.05600
C1261       C  0.93323377  0.49526704  0.25597927     0.88400
O1262       O  0.52683603  0.06151790  0.25468347    -0.74700
O1263       O  0.51315087  0.44911157  0.25100056    -0.87500
O1264       O  0.93208891  0.48488994  0.16945938    -0.80300
C1265       C  0.98259322  0.40686943  0.17779895     0.93500
C1266       C  0.58166198  0.42032703  0.23897246     0.93400
Mg1267     Mg  0.95563207  0.04108178  0.21373431     1.58000
O1268       O  0.92014738  0.06630235  0.23548722    -0.80200
O1269       O  0.99067064  0.02196965  0.18593238    -0.74500
O1270       O  0.50537853  0.41145434  0.19316800    -0.80300
O1271       O  0.57455696  0.46983792  0.31808987    -0.82000
O1272       O  0.99232334  0.08841125  0.30588492    -0.80300
C1273       C  0.50027756  0.99689773  0.18480338     0.87800
O1274       O  0.98470737  0.05125388  0.24720123    -0.87500
O1275       O  0.94651411  0.49928918  0.23360136    -0.87600
O1276       O  0.93885212  0.01194549  0.27919860    -0.74600
Mg1277     Mg  0.52914793  0.45084220  0.20805556     1.58000
O1278       O  0.96097030  0.42321643  0.17836655    -0.82000
H1279       H  0.57848769  0.01854072  0.24388726    -0.05700
O1280       O  0.00201640  0.02184265  0.30094081    -0.87300
H1281       H  0.98126618  0.50142199  0.33325209    -0.05600
H1282       H  0.50172968  0.07887671  0.22430657    -0.05700
C1283       C  0.99677277  0.49909427  0.31639056     0.87800
C1284       C  0.56244413  0.00216268  0.24491840     0.88400
C1285       C  0.50332771  0.06420880  0.24193603     0.88400
H1286       H  0.91724277  0.47881624  0.25665160    -0.05700
O1287       O  0.96918587  0.43642305  0.24492306    -0.74700
Mg1288     Mg  0.96800469  0.04942252  0.29007434     1.58000
H1289       H  0.99520416  0.41934392  0.27470151    -0.05700
C1290       C  0.57953784  0.49242052  0.33200213     0.93400
O1291       O  0.53412690  0.07580357  0.32077250    -0.82000
C1292       C  0.51276502  0.09249941  0.32119620     0.93500
O1293       O  0.56441820  0.42133421  0.21845839    -0.82000
Mg1294     Mg  0.95329111  0.46259910  0.20690761     1.58200
O1295       O  0.56314900  0.01427278  0.33188720    -0.80300
O1296       O  0.92499237  0.03059161  0.17870044    -0.82800
O1297       O  0.52844347  0.21379733  0.47153503    -0.87600
C1298       C  0.51914854  0.29945157  0.46083604     0.88500
Mg1299     Mg  0.99327318  0.18522835  0.47153781     1.58100
O1300       O  0.53749914  0.27487818  0.03098642    -0.87300
O1301       O  0.56504710  0.22623426  0.49706018    -0.74600
C1302       C  0.90018787  0.24011723  0.06247404     0.93500
O1303       O  0.98199336  0.24589213  0.43375978    -0.74400
O1304       O  0.90128572  0.22394454  0.04073618    -0.82000
Mg1305     Mg  0.53067280  0.24249785  0.43602862     1.58000
C1306       C  0.49038848  0.31213835  0.09846613     0.93400
O1307       O  0.57965590  0.24080299  0.43183890    -0.80200
H1308       H  0.56306086  0.25545890  0.05876417    -0.05600
C1309       C  0.95137599  0.28977221  0.01444296     0.88400
O1310       O  0.99318188  0.18265512  0.02268517    -0.74700
O1311       O  0.53226626  0.27736220  0.46621782    -0.87500
O1312       O  0.50832771  0.31727889  0.07871811    -0.80300
C1313       C  0.56798140  0.34429066  0.51445796     0.93500
C1314       C  0.59956045  0.25807383  0.43800209     0.93400
Mg1315     Mg  0.96974033  0.25512519  0.06482627     1.58000
O1316       O  0.92084852  0.25625889  0.06919305    -0.80200
O1317       O  0.52101974  0.25053949  0.06719159    -0.74500
O1318       O  0.57425712  0.32379118  0.49783911    -0.80300
O1319       O  0.52906688  0.20517620  0.40445896    -0.82000
O1320       O  0.92520648  0.17372951  0.00186676    -0.80300
C1321       C  0.54154037  0.26033216  0.05250414     0.87800
O1322       O  0.96801956  0.21968146  0.03545370    -0.87500
O1323       O  0.97209950  0.28361952  0.02917625    -0.87600
O1324       O  0.93592546  0.27067682  0.00337927    -0.74600
Mg1325     Mg  0.56634615  0.27532218  0.49644514     1.58000
O1326       O  0.54779855  0.34170698  0.02947019    -0.82000
H1327       H  0.55418169  0.18516145  0.48941732    -0.05700
O1328       O  0.96509105  0.22170139  0.46985223    -0.87300
H1329       H  0.93987792  0.24065376  0.44145810    -0.05600
H1330       H  0.98402930  0.19242378  0.06380748    -0.05700
C1331       C  0.96131754  0.23601229  0.44813477     0.87800
C1332       C  0.54936442  0.20735421  0.48589862     0.88400
C1333       C  0.98148570  0.19801965  0.04163835     0.88400
H1334       H  0.94656469  0.31188654  0.01047561    -0.05700
O1335       O  0.50851920  0.31478381  0.48047075    -0.74700
Mg1336     Mg  0.93421691  0.22168287  0.00454210     1.58000
H1337       H  0.51626133  0.30566276  0.43887193    -0.05700
C1338       C  0.01256644  0.18509063  0.40259146     0.93400
O1339       O  0.95588113  0.15416044  0.47184026    -0.82000
C1340       C  0.93312451  0.15206114  0.98759182     0.93500
O1341       O  0.59820398  0.27419392  0.45970665    -0.82000
Mg1342     Mg  0.50974645  0.31124858  0.02996110     1.58200
O1343       O  0.99529456  0.17931923  0.42275513    -0.80300
O1344       O  0.97069961  0.29293765  0.09563532    -0.82000
O1345       O  0.76432583  0.19947148  0.24886778    -0.87600
C1346       C  0.75815105  0.25691135  0.31558277     0.88500
Mg1347     Mg  0.79054942  0.20610022  0.21140890     1.58100
O1348       O  0.69807826  0.25440958  0.27146700    -0.87300
O1349       O  0.71994022  0.19148248  0.26035434    -0.74600
C1350       C  0.75794078  0.33563516  0.17138936     0.93500
O1351       O  0.81290640  0.24220131  0.27214195    -0.74400
O1352       O  0.77893068  0.31880177  0.17236819    -0.82000
Mg1353     Mg  0.78433043  0.20704957  0.28975011     1.58000
C1354       C  0.66415462  0.33006155  0.24299233     0.93400
O1355       O  0.76198574  0.17083286  0.31342862    -0.80200
H1356       H  0.66575324  0.23288743  0.25455042    -0.05600
C1357       C  0.75582723  0.31588581  0.25461213     0.88400
O1358       O  0.75236582  0.22209061  0.18588068    -0.74700
O1359       O  0.75141883  0.23660668  0.30045349    -0.87500
O1360       O  0.66922566  0.31760562  0.26653204    -0.80300
C1361       C  0.67977207  0.26612955  0.34474817     0.93500
C1362       C  0.74046335  0.16793882  0.32962568     0.93400
Mg1363     Mg  0.71368648  0.29544738  0.20988348     1.58000
O1364       O  0.73619965  0.33227361  0.18720546    -0.80200
O1365       O  0.68542930  0.25984636  0.22718601    -0.74500
O1366       O  0.69357318  0.24391490  0.33791804    -0.80300
O1367       O  0.81852074  0.17595851  0.27873036    -0.82000
O1368       O  0.80556357  0.25886127  0.16190086    -0.80300
C1369       C  0.68214685  0.24867796  0.25151714     0.87800
O1370       O  0.74681070  0.26619689  0.19901597    -0.87500
O1371       O  0.73332676  0.30294364  0.25095284    -0.87600
O1372       O  0.77788803  0.31062257  0.23986408    -0.74600
Mg1373     Mg  0.70887704  0.22011598  0.29855310     1.58000
O1374       O  0.67920218  0.28779550  0.32834420    -0.82000
H1375       H  0.74080249  0.17037763  0.22892089    -0.05700
O1376       O  0.79992941  0.24780396  0.22803187    -0.87300
H1377       H  0.83271466  0.26886597  0.24460064    -0.05600
H1378       H  0.72248988  0.24829089  0.16922511    -0.05700
C1379       C  0.81613181  0.25331861  0.24779898     0.87800
C1380       C  0.74193006  0.18627732  0.24548847     0.88400
C1381       C  0.73993927  0.24590649  0.18392962     0.88400
H1382       H  0.75698844  0.33158868  0.27135722    -0.05700
O1383       O  0.74535656  0.28055133  0.31385607    -0.74700
Mg1384     Mg  0.78936939  0.28250149  0.20137303     1.58000
H1385       H  0.77568836  0.25466907  0.33021014    -0.05700
C1386       C  0.83337043  0.17141481  0.25658310     0.93400
O1387       O  0.81812236  0.21423189  0.17108347    -0.82000
C1388       C  0.81850934  0.23610982  0.15492900     0.93500
O1389       O  0.71935046  0.18453262  0.32828139    -0.82000
Mg1390     Mg  0.70702067  0.29611384  0.28824715     1.58200
O1391       O  0.82837694  0.18408059  0.23309956    -0.80300
O1392       O  0.67890374  0.32590201  0.22071011    -0.82000
O1393       O  0.79083191  0.47557983  0.02313740    -0.87600
C1394       C  0.70777809  0.48695207  0.04858147     0.88500
Mg1395     Mg  0.81834077  0.00965230  0.01279061     1.58100
O1396       O  0.71661747  0.45872301  0.48113717    -0.87300
O1397       O  0.77442776  0.43489775  0.00790418    -0.74600
C1398       C  0.74530522  0.08639970  0.42125783     0.93500
O1399       O  0.76422491  0.03202844  0.05792044    -0.74400
O1400       O  0.76488457  0.08860766  0.43959102    -0.82000
Mg1401     Mg  0.76819149  0.48055665  0.06281282     1.58000
C1402       C  0.67075737  0.49354153  0.41382851     0.93400
O1403       O  0.77257049  0.43361653  0.07518111    -0.80200
H1404       H  0.73187176  0.42796191  0.45601135    -0.05600
C1405       C  0.70633540  0.04570178  0.48524898     0.88400
O1406       O  0.81120008  0.00250632  0.46445971    -0.74700
O1407       O  0.72884476  0.47344868  0.04069703    -0.87500
O1408       O  0.66695363  0.48166869  0.43787816    -0.80300
C1409       C  0.65557704  0.42955451  0.01105506     0.93500
C1410       C  0.75488947  0.41325103  0.07651238     0.93400
Mg1411     Mg  0.73186512  0.01784429  0.43351921     1.58000
O1412       O  0.72858476  0.06513316  0.42068972    -0.80200
O1413       O  0.73667903  0.46773505  0.44002100    -0.74500
O1414       O  0.67788435  0.42546193  0.02587070    -0.80300
O1415       O  0.80909897  0.48782504  0.08640272    -0.82000
O1416       O  0.82248096  0.07201765  0.46998878    -0.80300
C1417       C  0.72814950  0.45044928  0.45896124     0.87800
O1418       O  0.77162514  0.02458898  0.45507939    -0.87500
O1419       O  0.70982410  0.02255917  0.47330328    -0.87600
O1420       O  0.72691289  0.06254242  0.48967066    -0.74600
Mg1421     Mg  0.72634080  0.43411275  0.01766355     1.58000
O1422       O  0.65231632  0.45233423  0.49586568    -0.82000
H1423       H  0.81592991  0.44621096  0.00529889    -0.05700
O1424       O  0.78399344  0.03983293  0.01645724    -0.87300
H1425       H  0.77039095  0.07140759  0.04148955    -0.05600
H1426       H  0.79382424  0.00412836  0.42503897    -0.05700
C1427       C  0.77321771  0.04877420  0.03874227     0.87800
C1428       C  0.79476658  0.45210278  0.01202010     0.88400
C1429       C  0.79224193  0.01044902  0.44711466     0.88400
H1430       H  0.68534934  0.05154951  0.49257195    -0.05700
O1431       O  0.68889808  0.49465707  0.03103748    -0.74700
Mg1432     Mg  0.77474227  0.06360928  0.47890541     1.58000
H1433       H  0.70566034  0.49280850  0.07074390    -0.05700
C1434       C  0.83001205  0.00532239  0.08256924     0.93400
O1435       O  0.84878091  0.04475393  0.00008458    -0.82000
C1436       C  0.84613956  0.06738899  0.48231846     0.93500
O1437       O  0.73507679  0.41040615  0.05845105    -0.82000
Mg1438     Mg  0.68165363  0.48825441  0.48395258     1.58200
O1439       O  0.83385380  0.01627586  0.05815248    -0.80300
O1440       O  0.68984412  0.01154146  0.41112261    -0.82000
C1441       C  0.73092195  0.38399974  0.11350335     0.24400
C1442       C  0.75626228  0.39361050  0.10094268    -0.23700
C1443       C  0.78230002  0.38629905  0.11350286     0.19300
C1444       C  0.78296761  0.36840718  0.13730832     0.24300
C1445       C  0.75756466  0.35805874  0.14932833    -0.23700
C1446       C  0.73152686  0.36662234  0.13751009     0.19200
F1447       F  0.70648965  0.35723967  0.14837981    -0.13600
F1448       F  0.70536178  0.39194898  0.10289826    -0.16000
F1449       F  0.80846099  0.36109749  0.14848963    -0.16000
F1450       F  0.80712344  0.39592731  0.10237406    -0.13600
C1451       C  0.71612913  0.13402567  0.36310957     0.24400
C1452       C  0.74122044  0.14619858  0.35227705    -0.23700
C1453       C  0.76722500  0.13960267  0.36527978     0.19300
C1454       C  0.76822817  0.12096053  0.38828637     0.24300
C1455       C  0.74329215  0.10815998  0.39869363    -0.23700
C1456       C  0.71720531  0.11485211  0.38589306     0.19200
F1457       F  0.69271777  0.10318960  0.39570811    -0.13600
F1458       F  0.69059686  0.14052212  0.35154164    -0.16000
F1459       F  0.79387356  0.11485283  0.39985534    -0.16000
F1460       F  0.79173587  0.15198076  0.35639715    -0.13600
C1461       C  0.88610608  0.13468702  0.97182964     0.24400
C1462       C  0.91259496  0.12865469  0.98394242    -0.23700
C1463       C  0.91868065  0.10305704  0.48799158     0.19300
C1464       C  0.89779073  0.08175178  0.48686194     0.24300
C1465       C  0.86969105  0.08834422  0.47875387    -0.23700
C1466       C  0.86545591  0.11355208  0.96935175     0.19200
F1467       F  0.83992921  0.12087022  0.95824867    -0.13600
F1468       F  0.88008053  0.16136908  0.96258880    -0.16000
F1469       F  0.90493884  0.05484108  0.49438877    -0.16000
F1470       F  0.94529513  0.09628606  0.49655608    -0.13600
C1471       C  0.59162101  0.38578617  0.49161702     0.24400
C1472       C  0.58741433  0.36884961  0.51573177    -0.23700
C1473       C  0.59850081  0.37873133  0.03831654     0.19300
C1474       C  0.62017420  0.39931184  0.03815563     0.24300
C1475       C  0.63185339  0.40883526  0.01227556    -0.23700
C1476       C  0.61214474  0.40723549  0.49160918     0.19200
F1477       F  0.61605247  0.42239520  0.46735709    -0.13600
F1478       F  0.57617579  0.38112114  0.46775509    -0.16000
F1479       F  0.62974479  0.40988700  0.06320594    -0.16000
F1480       F  0.58803688  0.36948833  0.06363630    -0.13600
C1481       C  0.63176126  0.28740104  0.40714207     0.24400
C1482       C  0.62381121  0.26061537  0.41795402    -0.23700
C1483       C  0.63640452  0.23619900  0.40642240     0.19300
C1484       C  0.65572169  0.23827441  0.38383264     0.24300
C1485       C  0.66246444  0.26496443  0.37154349    -0.23700
C1486       C  0.65065474  0.28956739  0.38397702     0.19200
F1487       F  0.65669517  0.31567591  0.37328335    -0.13600
F1488       F  0.61966185  0.31141668  0.41769345    -0.16000
F1489       F  0.66652179  0.21372977  0.37307126    -0.16000
F1490       F  0.62939863  0.21009898  0.41658174    -0.13600
C1491       C  0.84642683  0.26303554  0.11795534     0.24400
C1492       C  0.83614343  0.23673441  0.12832201    -0.23700
C1493       C  0.84462572  0.21171599  0.11410774     0.19300
C1494       C  0.86377728  0.21294631  0.09101888     0.24300
C1495       C  0.87529967  0.23914067  0.08206216    -0.23700
C1496       C  0.86586414  0.26412886  0.09539218     0.19200
F1497       F  0.87624304  0.28976872  0.08714428    -0.13600
F1498       F  0.83912853  0.28789289  0.13074822    -0.16000
F1499       F  0.87256986  0.18831875  0.07875040    -0.16000
F1500       F  0.83495761  0.18600584  0.12292814    -0.13600
C1501       C  0.85853974  0.13145818  0.28172321     0.24400
C1502       C  0.85587396  0.14934692  0.25767901    -0.23700
C1503       C  0.87333205  0.14417652  0.23379738     0.19300
C1504       C  0.89231582  0.12141549  0.23368794     0.24300
C1505       C  0.89466549  0.10358762  0.25753238    -0.23700
C1506       C  0.87794908  0.10899013  0.28166860     0.19200
F1507       F  0.87994792  0.09208284  0.30499384    -0.13600
F1508       F  0.84200393  0.13515353  0.30517976    -0.16000
F1509       F  0.90920940  0.11741670  0.21053388    -0.16000
F1510       F  0.87217293  0.16107819  0.21040769    -0.13600
C1511       C  0.60650076  0.37870741  0.21619210     0.24400
C1512       C  0.60394324  0.39811063  0.23903063    -0.23700
C1513       C  0.62096481  0.39412906  0.26329602     0.19300
C1514       C  0.63959260  0.37121674  0.26488091     0.24300
C1515       C  0.64203350  0.35199771  0.24216205    -0.23700
C1516       C  0.62553527  0.35600517  0.21772277     0.19200
F1517       F  0.62753564  0.33767042  0.19547156    -0.13600
F1518       F  0.59042690  0.38134266  0.19243293    -0.16000
F1519       F  0.65610885  0.36848158  0.28832777    -0.16000
F1520       F  0.61955841  0.41219272  0.28580254    -0.13600
C1521       C  0.64838726  0.50988423  0.36817997     0.24400
C1522       C  0.64820986  0.49138716  0.39182052    -0.23700
C1523       C  0.62501231  0.47263375  0.39523445     0.19300
C1524       C  0.60251207  0.47281085  0.37582886     0.24300
C1525       C  0.60244902  0.49211204  0.35312373    -0.23700
C1526       C  0.62567781  0.51031650  0.34923849     0.19200
F1527       F  0.62667991  0.52817399  0.32654346    -0.13600
F1528       F  0.67020605  0.52814696  0.36354778    -0.16000
F1529       F  0.58046681  0.45463335  0.37959313    -0.16000
F1530       F  0.62389045  0.45421207  0.41741136    -0.13600
C1531       C  0.87229098  0.99378144  0.14993290     0.24400
C1532       C  0.89761030  0.00804054  0.14367163    -0.23700
C1533       C  0.90038308  0.02292496  0.11804006     0.19300
C1534       C  0.87821226  0.02272532  0.09829277     0.24300
C1535       C  0.85268789  0.00796835  0.10428236    -0.23700
C1536       C  0.84998093  0.99385098  0.13062722     0.19200
F1537       F  0.82593611  0.97962419  0.13775271    -0.13600
F1538       F  0.86903755  0.98000906  0.17514382    -0.16000
F1539       F  0.88206355  0.03656992  0.07321819    -0.16000
F1540       F  0.92478160  0.03698068  0.11185553    -0.13600
C1541       C  0.95816479  0.36775474  0.14969172     0.24400
C1542       C  0.98316035  0.38064993  0.15977127    -0.23700
C1543       C  0.51110114  0.36867424  0.15164489     0.19300
C1544       C  0.51296745  0.34601710  0.13250095     0.24300
C1545       C  0.48841505  0.33249961  0.12259006    -0.23700
C1546       C  0.95959586  0.34460854  0.13072679     0.19200
F1547       F  0.93512113  0.33354745  0.12042015    -0.13600
F1548       F  0.93234271  0.37791340  0.15759017    -0.16000
F1549       F  0.53895961  0.33778602  0.12299152    -0.16000
F1550       F  0.53555880  0.38176661  0.15930868    -0.13600
C1551       C  0.53858484  0.13118771  0.34845473     0.24400
C1552       C  0.51304734  0.11889679  0.33896558    -0.23700
C1553       C  0.98875805  0.13180813  0.34738225     0.19300
C1554       C  0.98812905  0.15378702  0.36740842     0.24300
C1555       C  0.01338467  0.16568649  0.37764377    -0.23700
C1556       C  0.53820410  0.15400091  0.36783769     0.19200
F1557       F  0.56320174  0.16433183  0.37762595    -0.13600
F1558       F  0.56396725  0.12068495  0.33961061    -0.16000
F1559       F  0.96264857  0.16292423  0.37746866    -0.16000
F1560       F  0.96364491  0.12033946  0.33924971    -0.13600
O1561       O  0.55152592  0.99871973  0.76396012    -0.87600
C1562       C  0.99017537  0.43401396  0.76026044     0.88500
Mg1563     Mg  0.54523445  0.03558363  0.79050054     1.58100
O1564       O  0.49628944  0.47921801  0.69913990    -0.87300
O1565       O  0.55908477  0.48844506  0.72130186    -0.74600
C1566       C  0.91715511  0.07923262  0.75846346     0.93500
O1567       O  0.50729536  0.47723831  0.81438364    -0.74400
O1568       O  0.93316732  0.07682788  0.77995483    -0.82000
Mg1569     Mg  0.54259366  0.45911718  0.78600291     1.58000
C1570       C  0.91980741  0.00594630  0.66554512     0.93400
O1571       O  0.57872791  0.43561678  0.76321616    -0.80200
H1572       H  0.51753423  0.99282636  0.66516836    -0.05600
C1573       C  0.93222382  0.49637524  0.75592738     0.88400
O1574       O  0.53018955  0.06185706  0.75226320    -0.74700
O1575       O  0.51298163  0.44911811  0.75283292    -0.87500
O1576       O  0.93376816  0.48475523  0.66900203    -0.80300
C1577       C  0.98175238  0.40562594  0.68050929     0.93500
C1578       C  0.58169229  0.41961983  0.74155336     0.93400
Mg1579     Mg  0.95570939  0.03905030  0.71404868     1.58000
O1580       O  0.92034865  0.06405647  0.73624909    -0.80200
O1581       O  0.99043733  0.02050262  0.68556876    -0.74500
O1582       O  0.50524380  0.41233561  0.69438502    -0.80300
O1583       O  0.57386965  0.46970021  0.82058889    -0.82000
O1584       O  0.99318831  0.08561108  0.80628863    -0.80300
C1585       C  0.50197793  0.99659857  0.68172261     0.87800
O1586       O  0.98508004  0.04900782  0.74731318    -0.87500
O1587       O  0.94592205  0.49987535  0.73372418    -0.87600
O1588       O  0.93941438  0.00942795  0.77942256    -0.74600
Mg1589     Mg  0.52971675  0.45109614  0.71012940     1.58000
O1590       O  0.96073432  0.42273331  0.68004839    -0.82000
H1591       H  0.58051335  0.01829954  0.73975482    -0.05700
O1592       O  0.00292144  0.01897632  0.80051441    -0.87300
H1593       H  0.97858905  0.50391555  0.83399755    -0.05600
H1594       H  0.50482527  0.07932668  0.72216411    -0.05700
C1595       C  0.99440369  0.50044136  0.81762828     0.87800
C1596       C  0.56446404  0.00195991  0.74123353     0.88400
C1597       C  0.50664554  0.06445536  0.73959896     0.88400
H1598       H  0.91591482  0.48023942  0.75654138    -0.05700
O1599       O  0.96695744  0.43682909  0.74696836    -0.74700
Mg1600     Mg  0.96873658  0.04677450  0.79029418     1.58000
H1601       H  0.99122206  0.41954785  0.77810460    -0.05700
C1602       C  0.57747059  0.49186988  0.83561190     0.93400
O1603       O  0.53758191  0.07478683  0.81871883    -0.82000
C1604       C  0.51639918  0.09168166  0.81921789     0.93500
O1605       O  0.56465093  0.42083961  0.72082517    -0.82000
Mg1606     Mg  0.95289147  0.46258761  0.70784006     1.58200
O1607       O  0.56619472  0.01350764  0.82866043    -0.80300
O1608       O  0.92486980  0.02869441  0.67917391    -0.82800
O1609       O  0.53073304  0.21019984  0.97253605    -0.87600
C1610       C  0.51958427  0.29580247  0.96121353     0.88500
Mg1611     Mg  0.99414135  0.18199987  0.97370858     1.58100
O1612       O  0.53535777  0.27737181  0.53071796    -0.87300
O1613       O  0.56734942  0.22379035  0.99747189    -0.74600
C1614       C  0.90006376  0.24107273  0.56192902     0.93500
O1615       O  0.98268599  0.24175726  0.93449479    -0.74400
O1616       O  0.90090644  0.22540886  0.53982648    -0.82000
Mg1617     Mg  0.53162123  0.23884983  0.93684940     1.58000
C1618       C  0.48793278  0.31465760  0.59813785     0.93400
O1619       O  0.58046666  0.23810640  0.93156755    -0.80200
H1620       H  0.56017442  0.25729492  0.55870514    -0.05600
C1621       C  0.95026130  0.29189079  0.51478697     0.88400
O1622       O  0.99257343  0.18461388  0.52050055    -0.74700
O1623       O  0.53285933  0.27385610  0.96676529    -0.87500
O1624       O  0.50583486  0.31980742  0.57837362    -0.80300
C1625       C  0.56904931  0.34212105  0.01266254     0.93500
C1626       C  0.60001286  0.25591866  0.93721409     0.93400
Mg1627     Mg  0.96956916  0.25630508  0.56419933     1.58000
O1628       O  0.92086253  0.25687954  0.56896351    -0.80200
O1629       O  0.51794154  0.25303525  0.56647942    -0.74500
O1630       O  0.57459933  0.32132265  0.99618530    -0.80300
O1631       O  0.53046513  0.20162855  0.90565467    -0.82000
O1632       O  0.92468958  0.17625923  0.49994484    -0.80300
C1633       C  0.53883511  0.26258542  0.55217031     0.87800
O1634       O  0.96769490  0.22151767  0.53408689    -0.87500
O1635       O  0.97126121  0.28544046  0.52897402    -0.87600
O1636       O  0.93479479  0.27303127  0.50339053    -0.74600
Mg1637     Mg  0.56765896  0.27287546  0.99610185     1.58000
O1638       O  0.54608289  0.34381928  0.53031678    -0.82000
H1639       H  0.55727784  0.18239048  0.99053660    -0.05700
O1640       O  0.96589572  0.21838333  0.97112743    -0.87300
H1641       H  0.94059500  0.23637161  0.94219916    -0.05600
H1642       H  0.98360791  0.19358943  0.56184549    -0.05700
C1643       C  0.96205332  0.23207383  0.94903932     0.87800
C1644       C  0.55195263  0.20442133  0.98674809     0.88400
C1645       C  0.98104442  0.19965807  0.53980356     0.88400
H1646       H  0.94525062  0.31408022  0.51154788    -0.05700
O1647       O  0.50934388  0.31148478  0.98077037    -0.74700
Mg1648     Mg  0.93357484  0.22408670  0.50348101     1.58000
H1649       H  0.51628008  0.30161101  0.93919919    -0.05700
C1650       C  0.01358907  0.18050923  0.90469873     0.93400
O1651       O  0.95683776  0.15113539  0.97459892    -0.82000
C1652       C  0.93233068  0.15483701  0.48518107     0.93500
O1653       O  0.59867727  0.27209987  0.95883255    -0.82000
Mg1654     Mg  0.50795448  0.31405413  0.52966474     1.58200
O1655       O  0.99650015  0.17477519  0.92503763    -0.80300
O1656       O  0.97064162  0.29341429  0.59595985    -0.82000
O1657       O  0.76668509  0.19948490  0.74900198    -0.87600
C1658       C  0.76011102  0.25628763  0.81629115     0.88500
Mg1659     Mg  0.79274829  0.20627221  0.71166469     1.58100
O1660       O  0.70029504  0.25473741  0.77170633    -0.87300
O1661       O  0.72211979  0.19175596  0.75992032    -0.74600
C1662       C  0.76023472  0.33606718  0.67219178     0.93500
O1663       O  0.81510621  0.24220799  0.77261512    -0.74400
O1664       O  0.78093461  0.31887015  0.67274079    -0.82000
Mg1665     Mg  0.78656038  0.20688153  0.78989447     1.58000
C1666       C  0.66675894  0.33134987  0.74430897     0.93400
O1667       O  0.76416662  0.17051220  0.81302423    -0.80200
H1668       H  0.66756613  0.23385980  0.75475596    -0.05600
C1669       C  0.75853494  0.31607726  0.75568578     0.88400
O1670       O  0.75437183  0.22270567  0.68657818    -0.74700
O1671       O  0.75348792  0.23627047  0.80074554    -0.87500
O1672       O  0.67189898  0.31865846  0.76770562    -0.80300
C1673       C  0.68117692  0.26535694  0.84472923     0.93500
C1674       C  0.74243495  0.16726879  0.82884377     0.93400
Mg1675     Mg  0.71606768  0.29649553  0.71093193     1.58000
O1676       O  0.73905056  0.33337453  0.68886764    -0.80200
O1677       O  0.68732746  0.26104433  0.72767534    -0.74500
O1678       O  0.69506871  0.24318304  0.83789839    -0.80300
O1679       O  0.82086988  0.17589006  0.77874902    -0.82000
O1680       O  0.80683258  0.25900810  0.66233846    -0.80300
C1681       C  0.68412639  0.24949461  0.75182715     0.87800
O1682       O  0.74886095  0.26677527  0.69996095    -0.87500
O1683       O  0.73589063  0.30336092  0.75204521    -0.87600
O1684       O  0.78045036  0.31081510  0.74068823    -0.74600
Mg1685     Mg  0.71087607  0.21992081  0.79833261     1.58000
O1686       O  0.68108542  0.28726498  0.82864860    -0.82000
H1687       H  0.74318208  0.17070389  0.72860450    -0.05700
O1688       O  0.80225109  0.24792255  0.72848035    -0.87300
H1689       H  0.83493531  0.26900841  0.74522300    -0.05600
H1690       H  0.72423897  0.24891904  0.67038846    -0.05700
C1691       C  0.81838543  0.25340494  0.74831577     0.87800
C1692       C  0.74424556  0.18646076  0.74531298     0.88400
C1693       C  0.74184662  0.24650845  0.68489836     0.88400
H1694       H  0.75993187  0.33162689  0.77255475    -0.05700
O1695       O  0.74739493  0.27998369  0.81482796    -0.74700
Mg1696     Mg  0.79148793  0.28272152  0.70194753     1.58000
H1697       H  0.77748359  0.25374563  0.83106692    -0.05700
C1698       C  0.83567004  0.17111600  0.75661234     0.93400
O1699       O  0.81993141  0.21448004  0.67125362    -0.82000
C1700       C  0.81978748  0.23635737  0.65512231     0.93500
O1701       O  0.72123875  0.18378118  0.82750265    -0.82000
Mg1702     Mg  0.70936888  0.29619072  0.78914127     1.58200
O1703       O  0.83071543  0.18374450  0.73307309    -0.80300
O1704       O  0.68143683  0.32733405  0.72193756    -0.82000
O1705       O  0.79013639  0.47613796  0.52453000    -0.87600
C1706       C  0.70748601  0.48900707  0.54937484     0.88500
Mg1707     Mg  0.81966033  0.01064303  0.51192003     1.58100
O1708       O  0.71810148  0.45844474  0.97990916    -0.87300
O1709       O  0.77320656  0.43564575  0.50930588    -0.74600
C1710       C  0.74648007  0.08606403  0.92069974     0.93500
O1711       O  0.76443911  0.03118005  0.55716053    -0.74400
O1712       O  0.76591404  0.08835678  0.93921331    -0.82000
Mg1713     Mg  0.76766040  0.48173199  0.56394464     1.58000
C1714       C  0.67051777  0.49475290  0.91489997     0.93400
O1715       O  0.77165524  0.43487975  0.57677445    -0.80200
H1716       H  0.73370561  0.42907689  0.95331547    -0.05600
C1717       C  0.70641970  0.04811409  0.98521662     0.88400
O1718       O  0.80992267  0.00111090  0.96549104    -0.74700
O1719       O  0.72817600  0.47467967  0.54199158    -0.87500
O1720       O  0.66967523  0.47920498  0.93695003    -0.80300
C1721       C  0.65399183  0.43182503  0.51338812     0.93500
C1722       C  0.75434018  0.41418414  0.57780533     0.93400
Mg1723     Mg  0.73164533  0.01804723  0.93409324     1.58000
O1724       O  0.72961109  0.06492952  0.92020440    -0.80200
O1725       O  0.73645492  0.46953949  0.93845476    -0.74500
O1726       O  0.67672801  0.42693439  0.52732421    -0.80300
O1727       O  0.80898327  0.48859650  0.58707009    -0.82000
O1728       O  0.82311574  0.07052743  0.97008507    -0.80300
C1729       C  0.72935691  0.45131436  0.95717726     0.87800
O1730       O  0.77112413  0.02440304  0.95587535    -0.87500
O1731       O  0.70939163  0.02466231  0.97376117    -0.87600
O1732       O  0.72741060  0.06440250  0.98962526    -0.74600
Mg1733     Mg  0.72514345  0.43513436  0.51923144     1.58000
O1734       O  0.65387796  0.44980909  0.99329793    -0.82000
H1735       H  0.81482660  0.44648465  0.50660320    -0.05700
O1736       O  0.78442467  0.03973368  0.51598867    -0.87300
H1737       H  0.77003549  0.07081737  0.54119125    -0.05600
H1738       H  0.79277283  0.00313833  0.92600405    -0.05700
C1739       C  0.77333428  0.04826933  0.53827030     0.87800
C1740       C  0.79375434  0.45261219  0.51340146     0.88400
C1741       C  0.79133062  0.00962184  0.94804141     0.88400
H1742       H  0.68553360  0.05467172  0.99221442    -0.05700
O1743       O  0.68896620  0.49687197  0.53153187    -0.74700
Mg1744     Mg  0.77516727  0.06368407  0.97901875     1.58000
H1745       H  0.70545650  0.49554387  0.57135424    -0.05700
C1746       C  0.83095105  0.00528879  0.58182231     0.93400
O1747       O  0.84924119  0.04670485  0.49946690    -0.82000
C1748       C  0.84646071  0.06540962  0.98279955     0.93500
O1749       O  0.73423476  0.41145532  0.56004045    -0.82000
Mg1750     Mg  0.68253056  0.48678205  0.98316726     1.58200
O1751       O  0.83514464  0.01666796  0.55762044    -0.80300
O1752       O  0.69029919  0.01145098  0.91058443    -0.82000
C1753       C  0.73160783  0.38514550  0.61560895     0.24400
C1754       C  0.75647722  0.39402056  0.60169514    -0.23700
C1755       C  0.78294635  0.38549193  0.61243238     0.19300
C1756       C  0.78441206  0.36741827  0.63607420     0.24300
C1757       C  0.75940794  0.35817783  0.64979083    -0.23700
C1758       C  0.73301889  0.36764670  0.63948318     0.19200
F1759       F  0.70832411  0.35911897  0.65176752    -0.13600
F1760       F  0.70577282  0.39402527  0.60650410    -0.16000
F1761       F  0.81026675  0.35889709  0.64543597    -0.16000
F1762       F  0.80735353  0.39413116  0.59966133    -0.13600
C1763       C  0.71801744  0.13257068  0.86132124     0.24400
C1764       C  0.74310500  0.14529123  0.85121584    -0.23700
C1765       C  0.76891974  0.13913117  0.86479905     0.19300
C1766       C  0.76969506  0.12062293  0.88791453     0.24300
C1767       C  0.74472455  0.10753373  0.89784342    -0.23700
C1768       C  0.71886480  0.11356913  0.88423907     0.19200
F1769       F  0.69435009  0.10143244  0.89337930    -0.13600
F1770       F  0.69271784  0.13839131  0.84891495    -0.16000
F1771       F  0.79515969  0.11497741  0.90009487    -0.16000
F1772       F  0.79342648  0.15185500  0.85641607    -0.13600
C1773       C  0.88411850  0.13778967  0.47259778     0.24400
C1774       C  0.91171145  0.13138224  0.48177610    -0.23700
C1775       C  0.91865745  0.10074143  0.99244002     0.19300
C1776       C  0.89775250  0.07953327  0.99059815     0.24300
C1777       C  0.87054851  0.08582258  0.97963347    -0.23700
C1778       C  0.86346233  0.11658124  0.47077864     0.19200
F1779       F  0.83689567  0.12423301  0.46273968    -0.13600
F1780       F  0.87702371  0.16488611  0.46558907    -0.16000
F1781       F  0.90393385  0.05309721  0.00034563    -0.16000
F1782       F  0.94428358  0.09436225  0.00384086    -0.13600
C1783       C  0.60066972  0.37625540  0.98684218     0.24400
C1784       C  0.58884841  0.36668906  0.01262261    -0.23700
C1785       C  0.60381200  0.37391497  0.54015826     0.19300
C1786       C  0.62495955  0.39497354  0.54000162     0.24300
C1787       C  0.62957115  0.41177676  0.51557812    -0.23700
C1788       C  0.62157874  0.39733152  0.98664974     0.19200
F1789       F  0.63287585  0.40550716  0.96130016    -0.13600
F1790       F  0.59219423  0.36489661  0.96171008    -0.16000
F1791       F  0.64118682  0.39855984  0.56351939    -0.16000
F1792       F  0.60033427  0.35746025  0.56365342    -0.13600
C1793       C  0.63025358  0.28575577  0.90503257     0.24400
C1794       C  0.62385578  0.25898543  0.91682170    -0.23700
C1795       C  0.63798195  0.23494315  0.90638771     0.19300
C1796       C  0.65768694  0.23735751  0.88416112     0.24300
C1797       C  0.66325154  0.26398213  0.87112142    -0.23700
C1798       C  0.64953800  0.28823405  0.88225526     0.19200
F1799       F  0.65403837  0.31425272  0.87061685    -0.13600
F1800       F  0.61634634  0.30932066  0.91429855    -0.16000
F1801       F  0.67019939  0.21313146  0.87461532    -0.16000
F1802       F  0.63225385  0.20887257  0.91738984    -0.13600
C1803       C  0.84721850  0.26355144  0.61817632     0.24400
C1804       C  0.83686916  0.23718480  0.62825232    -0.23700
C1805       C  0.84475970  0.21231182  0.61347702     0.19300
C1806       C  0.86359826  0.21371942  0.59015939     0.24300
C1807       C  0.87529964  0.23994914  0.58155911    -0.23700
C1808       C  0.86630700  0.26481504  0.59538299     0.19200
F1809       F  0.87689645  0.29047221  0.58746237    -0.13600
F1810       F  0.84039695  0.28826496  0.63150317    -0.16000
F1811       F  0.87194948  0.18921854  0.57733817    -0.16000
F1812       F  0.83481027  0.18659435  0.62195951    -0.13600
C1813       C  0.86092855  0.13151923  0.78236332     0.24400
C1814       C  0.85796295  0.14875497  0.75786084    -0.23700
C1815       C  0.87478705  0.14255504  0.73376749     0.19300
C1816       C  0.89331983  0.11939041  0.73388168     0.24300
C1817       C  0.89583244  0.10211027  0.75813888    -0.23700
C1818       C  0.87984659  0.10861261  0.78249833     0.19200
F1819       F  0.88205665  0.09235699  0.80626326    -0.13600
F1820       F  0.84515476  0.13629252  0.80614563    -0.16000
F1821       F  0.90961483  0.11444036  0.71048023    -0.16000
F1822       F  0.87339033  0.15878835  0.70992407    -0.13600
C1823       C  0.60662780  0.37785145  0.71895502     0.24400
C1824       C  0.60450093  0.39782563  0.74135486    -0.23700
C1825       C  0.62295257  0.39515668  0.76475363     0.19300
C1826       C  0.64249573  0.37292926  0.76595358     0.24300
C1827       C  0.64439347  0.35310211  0.74370886    -0.23700
C1828       C  0.62657537  0.35589069  0.72006941     0.19200
F1829       F  0.62809461  0.33697509  0.69827905    -0.13600
F1830       F  0.58918112  0.37913115  0.69608256    -0.16000
F1831       F  0.66035037  0.37140409  0.78850468    -0.16000
F1832       F  0.62217729  0.41393513  0.78669425    -0.13600
C1833       C  0.63755471  0.46748662  0.88362089     0.24400
C1834       C  0.64664863  0.49345154  0.89498326    -0.23700
C1835       C  0.63140404  0.51831174  0.88898974     0.19300
C1836       C  0.60788894  0.51750383  0.87109610     0.24300
C1837       C  0.59941663  0.49174387  0.85826349    -0.23700
C1838       C  0.61435600  0.46661052  0.86514461     0.19200
F1839       F  0.60694448  0.44120147  0.85369250    -0.13600
F1840       F  0.65167520  0.44309887  0.88977280    -0.16000
F1841       F  0.59395609  0.54223088  0.86590628    -0.16000
F1842       F  0.63895388  0.54341882  0.90104085    -0.13600
C1843       C  0.87327455  0.98995533  0.64834250     0.24400
C1844       C  0.89766563  0.00633355  0.64385203    -0.23700
C1845       C  0.89971964  0.02368334  0.61973509     0.19300
C1846       C  0.87782230  0.02396012  0.59970503     0.24300
C1847       C  0.85324004  0.00724920  0.60394782    -0.23700
C1848       C  0.85119696  0.99049748  0.62879295     0.19200
F1849       F  0.82811099  0.97406453  0.63412742    -0.13600
F1850       F  0.87059277  0.97375057  0.67213287    -0.16000
F1851       F  0.88094317  0.04032633  0.57610556    -0.16000
F1852       F  0.92322531  0.03974010  0.61524977    -0.13600
C1853       C  0.95770207  0.36584171  0.65303467     0.24400
C1854       C  0.98251170  0.37992474  0.66185788    -0.23700
C1855       C  0.51005050  0.37051479  0.65152579     0.19300
C1856       C  0.51136686  0.34808002  0.63207605     0.24300
C1857       C  0.48653211  0.33470385  0.62261720    -0.23700
C1858       C  0.95926270  0.34319294  0.63345638     0.19200
F1859       F  0.93486486  0.33083912  0.62451599    -0.13600
F1860       F  0.93193510  0.37426826  0.66292899    -0.16000
F1861       F  0.53710526  0.33996374  0.62180008    -0.16000
F1862       F  0.53471080  0.38348662  0.65874400    -0.13600
C1863       C  0.54180282  0.12851127  0.84913165     0.24400
C1864       C  0.51644857  0.11730985  0.83800147    -0.23700
C1865       C  0.98979265  0.12861889  0.84816833     0.19300
C1866       C  0.98922589  0.15012693  0.86870150     0.24300
C1867       C  0.01450711  0.16097850  0.87992464    -0.23700
C1868       C  0.54104430  0.15032864  0.86957210     0.19200
F1869       F  0.56580077  0.15973822  0.88079643    -0.13600
F1870       F  0.56732442  0.11789655  0.84083740    -0.16000
F1871       F  0.96377287  0.15995527  0.87813932    -0.16000
F1872       F  0.96460828  0.11824001  0.83888803    -0.13600
O1873       O  0.55052255  0.50021192  0.26318469    -0.87600
C1874       C  0.99145748  0.93549129  0.26152389     0.88500
Mg1875     Mg  0.54400587  0.53740924  0.28927035     1.58100
O1876       O  0.49441009  0.97738272  0.20133681    -0.87300
O1877       O  0.55723553  0.98758719  0.22279995    -0.74600
C1878       C  0.91504866  0.57861276  0.25892196     0.93500
O1879       O  0.50621374  0.97596556  0.31618792    -0.74400
O1880       O  0.93128760  0.57663550  0.28028719    -0.82000
Mg1881     Mg  0.54156810  0.95811032  0.28767841     1.58000
C1882       C  0.91940956  0.50817652  0.16399785     0.93400
O1883       O  0.57781560  0.93478531  0.26476952    -0.80200
H1884       H  0.51663649  0.49376601  0.16416747    -0.05600
C1885       C  0.93314010  0.99756775  0.25708784     0.88400
O1886       O  0.52781602  0.56314942  0.25114201    -0.74700
O1887       O  0.51193270  0.94766757  0.25480042    -0.87500
O1888       O  0.93155537  0.98407561  0.17113449    -0.80300
C1889       C  0.98178041  0.90534854  0.18289205     0.93500
C1890       C  0.58073031  0.91881516  0.24307152     0.93400
Mg1891     Mg  0.95415774  0.54043576  0.21407413     1.58000
O1892       O  0.91809372  0.56322334  0.23688346    -0.80200
O1893       O  0.98943180  0.52362556  0.18515777    -0.74500
O1894       O  0.50433470  0.91066882  0.19650656    -0.80300
O1895       O  0.57280714  0.96905519  0.32203347    -0.82000
O1896       O  0.99091583  0.58576667  0.30774882    -0.80300
C1897       C  0.50097671  0.49733941  0.18066798     0.87800
O1898       O  0.98348695  0.55022307  0.24766855    -0.87500
O1899       O  0.94644316  0.00065675  0.23457669    -0.87600
O1900       O  0.93854329  0.50920195  0.27848547    -0.74600
Mg1901     Mg  0.52830478  0.94980494  0.21197759     1.58000
O1902       O  0.96058172  0.92226948  0.18210749    -0.82000
H1903       H  0.57922787  0.52019017  0.23899844    -0.05700
O1904       O  0.00171516  0.51944568  0.30055416    -0.87300
H1905       H  0.98080261  0.00622784  0.33437139    -0.05600
H1906       H  0.50197934  0.58000845  0.22110628    -0.05700
C1907       C  0.99636665  0.00255039  0.31780628     0.87800
C1908       C  0.56337263  0.50365909  0.24045127     0.88400
C1909       C  0.50420099  0.56518187  0.23853018     0.88400
H1910       H  0.91681489  0.98147687  0.25826541    -0.05700
O1911       O  0.96798625  0.93776168  0.24860797    -0.74700
Mg1912     Mg  0.96710302  0.54687405  0.29054234     1.58000
H1913       H  0.99302909  0.92134120  0.27958028    -0.05700
C1914       C  0.57648570  0.99121970  0.33702395     0.93400
O1915       O  0.53583272  0.57696321  0.31716140    -0.82000
C1916       C  0.51416041  0.59326978  0.31805634     0.93500
O1917       O  0.56364727  0.92006417  0.22239236    -0.82000
Mg1918     Mg  0.95279826  0.96269002  0.20939384     1.58200
O1919       O  0.56724588  0.51598716  0.32662670    -0.80300
O1920       O  0.92318668  0.53033148  0.17900166    -0.82800
O1921       O  0.52921906  0.71109292  0.47222075    -0.87600
C1922       C  0.52106223  0.79706676  0.46055294     0.88500
Mg1923     Mg  0.99419752  0.68273551  0.47386685     1.58100
O1924       O  0.53552886  0.77935088  0.03100190    -0.87300
O1925       O  0.56530971  0.72384763  0.49835063    -0.74600
C1926       C  0.90281652  0.74130087  0.06479028     0.93500
O1927       O  0.98263611  0.74379676  0.43614989    -0.74400
O1928       O  0.90345575  0.72546407  0.04281616    -0.82000
Mg1929     Mg  0.53172894  0.74006186  0.43691861     1.58000
C1930       C  0.48760591  0.81401714  0.09928611     0.93400
O1931       O  0.58057967  0.73799930  0.43290215    -0.80200
H1932       H  0.56159689  0.76026213  0.05851336    -0.05600
C1933       C  0.95250481  0.79133551  0.01657609     0.88400
O1934       O  0.99519653  0.68417060  0.02316908    -0.74700
O1935       O  0.53380653  0.77504676  0.46689391    -0.87500
O1936       O  0.50452310  0.82069929  0.07907886    -0.80300
C1937       C  0.56943547  0.84293508  0.51444604     0.93500
C1938       C  0.60080037  0.75481325  0.43928172     0.93400
Mg1939     Mg  0.97239084  0.75619741  0.06647982     1.58000
O1940       O  0.92390749  0.75666144  0.07181322    -0.80200
O1941       O  0.51972714  0.75381387  0.06665628    -0.74500
O1942       O  0.57717780  0.82090735  0.50059451    -0.80300
O1943       O  0.52972459  0.70314993  0.40490306    -0.82000
O1944       O  0.92711240  0.67519327  0.00422077    -0.80300
C1945       C  0.53995305  0.76458315  0.05227989     0.87800
O1946       O  0.97050506  0.72129180  0.03653927    -0.87500
O1947       O  0.97332561  0.78544479  0.03128935    -0.87600
O1948       O  0.93738903  0.77209536  0.00530851    -0.74600
Mg1949     Mg  0.56764258  0.77287885  0.49761273     1.58000
O1950       O  0.54402773  0.84606957  0.03022234    -0.82000
H1951       H  0.55451561  0.68270773  0.49107356    -0.05700
O1952       O  0.96594615  0.71906642  0.47198823    -0.87300
H1953       H  0.94058437  0.73834761  0.44396729    -0.05600
H1954       H  0.98699511  0.69390897  0.06449621    -0.05700
C1955       C  0.96206351  0.73362240  0.45045405     0.87800
C1956       C  0.54982910  0.70485299  0.48710935     0.88400
C1957       C  0.98400961  0.69956448  0.04239926     0.88400
H1958       H  0.94740323  0.81339636  0.01267252    -0.05700
O1959       O  0.50965689  0.81272104  0.47940587    -0.74700
Mg1960     Mg  0.93595239  0.72316326  0.00640886     1.58000
H1961       H  0.51894338  0.80276380  0.43835884    -0.05700
C1962       C  0.01249263  0.68260595  0.40443181     0.93400
O1963       O  0.95671387  0.65170566  0.47474759    -0.82000
C1964       C  0.93406873  0.65362440  0.98929683     0.93500
O1965       O  0.59972749  0.77082826  0.46110175    -0.82000
Mg1966     Mg  0.50672882  0.81486580  0.03018658     1.58200
O1967       O  0.99607916  0.67638385  0.42517624    -0.80300
O1968       O  0.97326162  0.79312133  0.09820455    -0.82000
O1969       O  0.76573662  0.69937211  0.24868009    -0.87600
C1970       C  0.75893933  0.75488611  0.31674716     0.88500
Mg1971     Mg  0.79225509  0.70673610  0.21174346     1.58100
O1972       O  0.69900621  0.75330981  0.27242625    -0.87300
O1973       O  0.72132854  0.69081177  0.25960335    -0.74600
C1974       C  0.75817015  0.83656085  0.17335685     0.93500
O1975       O  0.81373585  0.74194503  0.27328854    -0.74400
O1976       O  0.77933429  0.81988380  0.17388629    -0.82000
Mg1977     Mg  0.78536698  0.70604562  0.28977685     1.58000
C1978       C  0.66498896  0.82976079  0.24561972     0.93400
O1979       O  0.76326777  0.66883597  0.31176502    -0.80200
H1980       H  0.66679456  0.73205927  0.25497743    -0.05600
C1981       C  0.75662051  0.81558780  0.25663149     0.88400
O1982       O  0.75415228  0.72299546  0.18620181    -0.74700
O1983       O  0.75227246  0.73497562  0.30108990    -0.87500
O1984       O  0.67028588  0.81707990  0.26899459    -0.80300
C1985       C  0.68054861  0.76319056  0.34573805     0.93500
C1986       C  0.74180117  0.66519716  0.32782881     0.93400
Mg1987     Mg  0.71460885  0.79561879  0.21169143     1.58000
O1988       O  0.73682961  0.83300525  0.18967483    -0.80200
O1989       O  0.68651203  0.75957449  0.22821898    -0.74500
O1990       O  0.69408740  0.74096417  0.33838072    -0.80300
O1991       O  0.81950939  0.67550462  0.27839823    -0.82000
O1992       O  0.80707867  0.76026762  0.16308938    -0.80300
C1993       C  0.68315349  0.74795043  0.25231691     0.87800
O1994       O  0.74800519  0.76672376  0.20026149    -0.87500
O1995       O  0.73428937  0.80237794  0.25289126    -0.87600
O1996       O  0.77865098  0.81090458  0.24163438    -0.74600
Mg1997     Mg  0.70989286  0.71826374  0.29854003     1.58000
O1998       O  0.68029710  0.78532854  0.32995814    -0.82000
H1999       H  0.74253593  0.67072450  0.22773836    -0.05700
O2000       O  0.80135987  0.74832134  0.22907726    -0.87300
H2001       H  0.83356670  0.76948476  0.24663603    -0.05600
H2002       H  0.72405766  0.74920390  0.16993843    -0.05700
C2003       C  0.81716245  0.75364122  0.24923341     0.87800
C2004       C  0.74345094  0.68614923  0.24476405     0.88400
C2005       C  0.74143305  0.74669163  0.18471012     0.88400
H2006       H  0.75764856  0.83106384  0.27359608    -0.05700
O2007       O  0.74625285  0.77859676  0.31544263    -0.74700
Mg2008     Mg  0.79042380  0.78336925  0.20275500     1.58000
H2009       H  0.77638190  0.75226012  0.33142493    -0.05700
C2010       C  0.83455225  0.67100156  0.25643671     0.93400
O2011       O  0.81999210  0.71564802  0.17212213    -0.82000
C2012       C  0.82035940  0.73766463  0.15621377     0.93500
O2013       O  0.72060715  0.68175922  0.32717848    -0.82000
Mg2014     Mg  0.70801977  0.79471069  0.29010012     1.58200
O2015       O  0.83012278  0.68415448  0.23310360    -0.80300
O2016       O  0.67955403  0.82578230  0.22316461    -0.82000
O2017       O  0.78892321  0.97686566  0.02555965    -0.87600
C2018       C  0.70662105  0.99206488  0.05119666     0.88500
Mg2019     Mg  0.81929679  0.50967738  0.01158188     1.58100
O2020       O  0.71748393  0.95929790  0.48162382    -0.87300
O2021       O  0.77087079  0.93656399  0.01127479    -0.74600
C2022       C  0.74681784  0.58403236  0.41956677     0.93500
O2023       O  0.76427467  0.52876783  0.05714324    -0.74400
O2024       O  0.76608278  0.58685249  0.43818631    -0.82000
Mg2025     Mg  0.76662696  0.98391859  0.06518176     1.58000
C2026       C  0.66963549  0.99438975  0.41615837     0.93400
O2027       O  0.76923328  0.93723663  0.07931352    -0.80200
H2028       H  0.73258259  0.92920577  0.45556649    -0.05600
C2029       C  0.70644479  0.54543261  0.48342398     0.88400
O2030       O  0.81170406  0.50102460  0.46544716    -0.74700
O2031       O  0.72691398  0.97724853  0.04366617    -0.87500
O2032       O  0.66831238  0.97970868  0.43880702    -0.80300
C2033       C  0.65169962  0.93529120  0.01533237     0.93500
C2034       C  0.75180835  0.91659482  0.08033410     0.93400
Mg2035     Mg  0.73331673  0.51594087  0.43294614     1.58000
O2036       O  0.73017934  0.56273231  0.41927697    -0.80200
O2037       O  0.73570009  0.96930236  0.43984475    -0.74500
O2038       O  0.67423508  0.93011151  0.02950996    -0.80300
O2039       O  0.80786207  0.99101358  0.08830219    -0.82000
O2040       O  0.82292501  0.57091371  0.47068927    -0.80300
C2041       C  0.72848700  0.95156459  0.45897130     0.87800
O2042       O  0.77233170  0.52315298  0.45538587    -0.87500
O2043       O  0.71017061  0.52200614  0.47214615    -0.87600
O2044       O  0.72696046  0.56225451  0.48805244    -0.74600
Mg2045     Mg  0.72289559  0.93748166  0.02139701     1.58000
O2046       O  0.65246984  0.95136778  0.49689030    -0.82000
H2047       H  0.81274900  0.94621416  0.00816524    -0.05700
O2048       O  0.78397798  0.53854413  0.01604740    -0.87300
H2049       H  0.76922635  0.56883065  0.04201635    -0.05600
H2050       H  0.79497082  0.50258401  0.42575168    -0.05700
C2051       C  0.77280386  0.54640114  0.03855467     0.87800
C2052       C  0.79187782  0.95303805  0.01492475     0.88400
C2053       C  0.79306626  0.50898550  0.44777957     0.88400
H2054       H  0.68529575  0.55152659  0.49003012    -0.05700
O2055       O  0.68812113  0.00029347  0.03350709    -0.74700
Mg2056     Mg  0.77493617  0.56266078  0.47841728     1.58000
H2057       H  0.70496922  0.99874624  0.07316268    -0.05700
C2058       C  0.83024360  0.50365058  0.08104116     0.93400
O2059       O  0.84924613  0.54585682  0.99992018    -0.82000
C2060       C  0.84621821  0.56618499  0.48365925     0.93500
O2061       O  0.73173943  0.91393909  0.06248158    -0.82000
Mg2062     Mg  0.68182340  0.98787392  0.48481244     1.58200
O2063       O  0.83369308  0.51604518  0.05729542    -0.80300
O2064       O  0.69264534  0.50850096  0.40881275    -0.82000
C2065       C  0.72910515  0.88605630  0.11720512     0.24400
C2066       C  0.75396846  0.89620331  0.10413657    -0.23700
C2067       C  0.78044193  0.88838624  0.11543987     0.19300
C2068       C  0.78198257  0.86974129  0.13864122     0.24300
C2069       C  0.75703712  0.85915275  0.15140418    -0.23700
C2070       C  0.73058064  0.86794084  0.14065094     0.19200
F2071       F  0.70593630  0.85814322  0.15204950    -0.13600
F2072       F  0.70318452  0.89419322  0.10766781    -0.16000
F2073       F  0.80787855  0.86199074  0.14852578    -0.16000
F2074       F  0.80484956  0.89825948  0.10362154    -0.13600
C2075       C  0.71777129  0.63036702  0.36042875     0.24400
C2076       C  0.74280310  0.64268856  0.34968031    -0.23700
C2077       C  0.76891582  0.63574121  0.36232946     0.19300
C2078       C  0.76993485  0.61732402  0.38551821     0.24300
C2079       C  0.74494596  0.60505622  0.39636465    -0.23700
C2080       C  0.71887198  0.61142957  0.38337579     0.19200
F2081       F  0.69439304  0.59979179  0.39324513    -0.13600
F2082       F  0.69225098  0.63661949  0.34870365    -0.16000
F2083       F  0.79559241  0.61100098  0.39694809    -0.16000
F2084       F  0.79350282  0.64766252  0.35304208    -0.13600
C2085       C  0.88416522  0.63823367  0.98135065     0.24400
C2086       C  0.91264706  0.63064062  0.98605699    -0.23700
C2087       C  0.91950000  0.60051934  0.48785479     0.19300
C2088       C  0.89827792  0.57953876  0.48611350     0.24300
C2089       C  0.86974585  0.58715334  0.48103789    -0.23700
C2090       C  0.86311931  0.61750831  0.97869677     0.19200
F2091       F  0.83588235  0.62619127  0.97514505    -0.13600
F2092       F  0.87657620  0.66601432  0.97923341    -0.16000
F2093       F  0.90555154  0.55186781  0.48983092    -0.16000
F2094       F  0.94669372  0.59267755  0.49308386    -0.13600
C2095       C  0.58310904  0.89452065  0.50854783     0.24400
C2096       C  0.58992737  0.86670761  0.51694103    -0.23700
C2097       C  0.60100081  0.87705440  0.04052771     0.19300
C2098       C  0.62210395  0.89817133  0.04096685     0.24300
C2099       C  0.62708860  0.91531724  0.01687143    -0.23700
C2100       C  0.60386701  0.91602082  0.50895647     0.19200
F2101       F  0.59684231  0.94231118  0.49939210    -0.13600
F2102       F  0.55677570  0.90054181  0.49866412    -0.16000
F2103       F  0.63800245  0.90143282  0.06475485    -0.16000
F2104       F  0.59730416  0.86027565  0.06375220    -0.13600
C2105       C  0.63413807  0.78389408  0.40945096     0.24400
C2106       C  0.62502638  0.75706703  0.41918570    -0.23700
C2107       C  0.63612035  0.73259913  0.40625917     0.19300
C2108       C  0.65514348  0.73475001  0.38343885     0.24300
C2109       C  0.66319690  0.76161010  0.37243307    -0.23700
C2110       C  0.65279684  0.78616892  0.38612447     0.19200
F2111       F  0.66000279  0.81239885  0.37651311    -0.13600
F2112       F  0.62335004  0.80798646  0.42118817    -0.16000
F2113       F  0.66428503  0.71025153  0.37113783    -0.16000
F2114       F  0.62783063  0.70643145  0.41520580    -0.13600
C2115       C  0.85049943  0.76459135  0.12134942     0.24400
C2116       C  0.83840268  0.73852727  0.13005107    -0.23700
C2117       C  0.84542756  0.71377117  0.11468212     0.19300
C2118       C  0.86479473  0.71495987  0.09182618     0.24300
C2119       C  0.87794512  0.74081751  0.08431125    -0.23700
C2120       C  0.87009873  0.76563746  0.09896998     0.19200
F2121       F  0.88221248  0.79095754  0.09224746    -0.13600
F2122       F  0.84485269  0.78903416  0.13568920    -0.16000
F2123       F  0.87215184  0.69048175  0.07836902    -0.16000
F2124       F  0.83405470  0.68833085  0.12212831    -0.13600
C2125       C  0.85918741  0.63122738  0.28233176     0.24400
C2126       C  0.85643306  0.64832873  0.25769818    -0.23700
C2127       C  0.87292165  0.64162351  0.23352946     0.19300
C2128       C  0.89117723  0.61827966  0.23382159     0.24300
C2129       C  0.89370965  0.60135369  0.25833194    -0.23700
C2130       C  0.87782671  0.60814686  0.28263395     0.19200
F2131       F  0.87989779  0.59203367  0.30650885    -0.13600
F2132       F  0.84350751  0.63632421  0.30610844    -0.16000
F2133       F  0.90720547  0.61281904  0.21034451    -0.16000
F2134       F  0.87142464  0.65748423  0.20944018    -0.13600
C2135       C  0.60563580  0.87720413  0.22015985     0.24400
C2136       C  0.60340800  0.89688390  0.24281342    -0.23700
C2137       C  0.62144795  0.89363525  0.26645297     0.19300
C2138       C  0.64068204  0.87113691  0.26763893     0.24300
C2139       C  0.64268156  0.85159361  0.24514280    -0.23700
C2140       C  0.62526032  0.85495727  0.22127295     0.19200
F2141       F  0.62688928  0.83636961  0.19920644    -0.13600
F2142       F  0.58861496  0.87906703  0.19700725    -0.16000
F2143       F  0.65817729  0.86910116  0.29043129    -0.16000
F2144       F  0.62053801  0.91208530  0.28866357    -0.13600
C2145       C  0.62892567  0.01716130  0.39220686     0.24400
C2146       C  0.64575642  0.99295421  0.39631376    -0.23700
C2147       C  0.63829223  0.96737115  0.38311535     0.19300
C2148       C  0.61504345  0.96634701  0.36471368     0.24300
C2149       C  0.59850729  0.99094233  0.35963732    -0.23700
C2150       C  0.60539186  0.01617959  0.37431929     0.19200
F2151       F  0.58975886  0.04021269  0.37109743    -0.13600
F2152       F  0.63502375  0.04174717  0.40603453    -0.16000
F2153       F  0.60922382  0.94137613  0.35149732    -0.16000
F2154       F  0.65402064  0.94358106  0.38743323    -0.13600
C2155       C  0.89433573  0.48425077  0.12358564     0.24400
C2156       C  0.89813652  0.50854218  0.14080309    -0.23700
C2157       C  0.87939771  0.53179330  0.13742845     0.19300
C2158       C  0.85711910  0.53034163  0.11790439     0.24300
C2159       C  0.85301642  0.50564726  0.10186842    -0.23700
C2160       C  0.87185655  0.48282707  0.10452221     0.19200
F2161       F  0.86852782  0.45909947  0.08840526    -0.13600
F2162       F  0.91204102  0.46153681  0.12536011    -0.16000
F2163       F  0.83913016  0.55271589  0.11514189    -0.16000
F2164       F  0.88196694  0.55560828  0.15352698    -0.13600
C2165       C  0.95863604  0.86481961  0.15563520     0.24400
C2166       C  0.98308890  0.87945685  0.16451229    -0.23700
C2167       C  0.50922969  0.86758019  0.15507247     0.19300
C2168       C  0.51067079  0.84567042  0.13502075     0.24300
C2169       C  0.48588994  0.83323279  0.12436534    -0.23700
C2170       C  0.96077075  0.84227200  0.13596792     0.19200
F2171       F  0.93668471  0.82929906  0.12705503    -0.13600
F2172       F  0.93268378  0.87256932  0.16560467    -0.16000
F2173       F  0.53649270  0.83711450  0.12534382    -0.16000
F2174       F  0.53396962  0.87954733  0.16358747    -0.13600
C2175       C  0.53932859  0.63242606  0.34526454     0.24400
C2176       C  0.51401758  0.61908560  0.33665691    -0.23700
C2177       C  0.98767338  0.62825845  0.35061536     0.19300
C2178       C  0.98732362  0.65033101  0.37057234     0.24300
C2179       C  0.01264612  0.66332114  0.37930461    -0.23700
C2180       C  0.53877852  0.65446252  0.36554428     0.19200
F2181       F  0.56368534  0.66595177  0.37421660    -0.13600
F2182       F  0.56469527  0.62373341  0.33458004    -0.16000
F2183       F  0.96209931  0.65849775  0.38203569    -0.16000
F2184       F  0.96263927  0.61570105  0.34396878    -0.13600
O2185       O  0.55063801  0.49968549  0.76575924    -0.87600
C2186       C  0.99320999  0.93330008  0.76034273     0.88500
Mg2187     Mg  0.54396485  0.53686992  0.79184428     1.58100
O2188       O  0.49579987  0.97715870  0.69821158    -0.87300
O2189       O  0.55887519  0.98714733  0.71932986    -0.74600
C2190       C  0.91530124  0.57982131  0.75806783     0.93500
O2191       O  0.50912701  0.97576654  0.81346495    -0.74400
O2192       O  0.93115468  0.57747054  0.77965516    -0.82000
Mg2193     Mg  0.54404400  0.95817861  0.78431821     1.58000
C2194       C  0.92080410  0.50785781  0.66334908     0.93400
O2195       O  0.57997746  0.93604479  0.76059183    -0.80200
H2196       H  0.51841818  0.49510009  0.66644060    -0.05600
C2197       C  0.93369762  0.99517383  0.75724165     0.88400
O2198       O  0.52939497  0.56278974  0.75313713    -0.74700
O2199       O  0.51378764  0.94804347  0.75188319    -0.87500
O2200       O  0.93117206  0.98213865  0.67170561    -0.80300
C2201       C  0.98238055  0.90404544  0.68172939     0.93500
C2202       C  0.58226464  0.91899593  0.73972499     0.93400
Mg2203     Mg  0.95471760  0.54051072  0.71366833     1.58000
O2204       O  0.91887826  0.56501129  0.73565783    -0.80200
O2205       O  0.99035667  0.52196189  0.68601757    -0.74500
O2206       O  0.50474864  0.91043773  0.69432922    -0.80300
O2207       O  0.57587826  0.96838272  0.81852477    -0.82000
O2208       O  0.99060178  0.58651718  0.80766430    -0.80300
C2209       C  0.50246276  0.49867786  0.68265247     0.87800
O2210       O  0.98352022  0.55041922  0.74755644    -0.87500
O2211       O  0.94700239  0.99842051  0.73476271    -0.87600
O2212       O  0.93748920  0.51043796  0.77835325    -0.74600
Mg2213     Mg  0.52954505  0.94938854  0.70897009     1.58000
O2214       O  0.96090971  0.92061999  0.68171992    -0.82000
H2215       H  0.58057375  0.51908046  0.74261615    -0.05700
O2216       O  0.00026042  0.51993393  0.80105499    -0.87300
H2217       H  0.98222416  0.00252378  0.83388116    -0.05600
H2218       H  0.50471987  0.58040906  0.72255137    -0.05700
C2219       C  0.99772478  0.99935021  0.81715340     0.87800
C2220       C  0.56428686  0.50293691  0.74348133     0.88400
C2221       C  0.50603641  0.56568720  0.74016028     0.88400
H2222       H  0.91736680  0.97908168  0.75831559    -0.05700
O2223       O  0.96944405  0.93553233  0.74798048    -0.74700
Mg2224     Mg  0.96649143  0.54774741  0.79034633     1.58000
H2225       H  0.99530090  0.91893207  0.77816958    -0.05700
C2226       C  0.57940155  0.99040351  0.83375236     0.93400
O2227       O  0.53633890  0.57671154  0.81951854    -0.82000
C2228       C  0.51513049  0.59359616  0.82004750     0.93500
O2229       O  0.56462214  0.91916271  0.71948268    -0.82000
Mg2230     Mg  0.95329072  0.96069048  0.70932609     1.58200
O2231       O  0.56415726  0.51490422  0.83045678    -0.80300
O2232       O  0.92411734  0.53014826  0.67828645    -0.82800
O2233       O  0.52984240  0.71421279  0.97211336    -0.87600
C2234       C  0.51747246  0.80004576  0.96122183     0.88500
Mg2235     Mg  0.99514799  0.68380061  0.97418756     1.58100
O2236       O  0.53640743  0.77636508  0.53120488    -0.87300
O2237       O  0.56593379  0.72886762  0.99735675    -0.74600
C2238       C  0.90176488  0.74057067  0.56389775     0.93500
O2239       O  0.98233844  0.74380829  0.93550560    -0.74400
O2240       O  0.90249406  0.72396985  0.54249587    -0.82000
Mg2241     Mg  0.53076768  0.74312723  0.93654191     1.58000
C2242       C  0.48796686  0.81390722  0.59711520     0.93400
O2243       O  0.57981081  0.74348328  0.93178060    -0.80200
H2244       H  0.56129544  0.75724538  0.55977056    -0.05600
C2245       C  0.95192189  0.79008298  0.51554025     0.88400
O2246       O  0.99384121  0.68276387  0.52287987    -0.74700
O2247       O  0.53132555  0.77839821  0.96657089    -0.87500
O2248       O  0.50497490  0.82004274  0.57681934    -0.80300
C2249       C  0.56575124  0.84729590  0.01409306     0.93500
C2250       C  0.59938648  0.76117359  0.93788106     0.93400
Mg2251     Mg  0.97115626  0.75526983  0.56554504     1.58000
O2252       O  0.92260058  0.75666246  0.57000369    -0.80200
O2253       O  0.51911897  0.75183775  0.56687101    -0.74500
O2254       O  0.57229695  0.82708257  0.99717375    -0.80300
O2255       O  0.53031824  0.70558864  0.90497653    -0.82000
O2256       O  0.92651744  0.67391779  0.50385100    -0.80300
C2257       C  0.53992859  0.76194882  0.55289409     0.87800
O2258       O  0.96937644  0.72010446  0.53598333    -0.87500
O2259       O  0.97293947  0.78403189  0.52990861    -0.87600
O2260       O  0.93634380  0.77092901  0.50475030    -0.74600
Mg2261     Mg  0.56591401  0.77808510  0.99627604     1.58000
O2262       O  0.54577139  0.84409136  0.52758933    -0.82000
H2263       H  0.55673121  0.68719163  0.99078797    -0.05700
O2264       O  0.96681162  0.72003838  0.97239498    -0.87300
H2265       H  0.94053847  0.73750543  0.94403493    -0.05600
H2266       H  0.98531451  0.69257947  0.56413593    -0.05700
C2267       C  0.96221998  0.73365440  0.95042106     0.87800
C2268       C  0.55099327  0.70906312  0.98669558     0.88400
C2269       C  0.98262613  0.69826745  0.54200729     0.88400
H2270       H  0.94693737  0.81217636  0.51166974    -0.05700
O2271       O  0.50675893  0.81526538  0.98091494    -0.74700
Mg2272     Mg  0.93494475  0.72194503  0.50591388     1.58000
H2273       H  0.51408276  0.80600069  0.93926022    -0.05700
C2274       C  0.01328461  0.68294334  0.90468806     0.93400
O2275       O  0.95743008  0.65261528  0.97554999    -0.82000
C2276       C  0.93353419  0.65249908  0.48874640     0.93500
O2277       O  0.59755062  0.77757139  0.95933407    -0.82000
Mg2278     Mg  0.50832420  0.81295887  0.52832063     1.58200
O2279       O  0.99677990  0.67692243  0.92543550    -0.80300
O2280       O  0.97222339  0.79233204  0.59696656    -0.82000
O2281       O  0.76695880  0.70205580  0.75112545    -0.87600
C2282       C  0.76109635  0.75840255  0.81850269     0.88500
Mg2283     Mg  0.79358863  0.70865380  0.71394223     1.58100
O2284       O  0.70155052  0.75666120  0.77374484    -0.87300
O2285       O  0.72264206  0.69367451  0.76242168    -0.74600
C2286       C  0.76183210  0.83858481  0.67409731     0.93500
O2287       O  0.81573479  0.74367264  0.77515245    -0.74400
O2288       O  0.78298342  0.82187371  0.67485715    -0.82000
Mg2289     Mg  0.78673874  0.70844630  0.79218799     1.58000
C2290       C  0.66787195  0.83182319  0.74504528     0.93400
O2291       O  0.76364619  0.67203155  0.81497440    -0.80200
H2292       H  0.66967155  0.73507902  0.75609854    -0.05600
C2293       C  0.75968929  0.81832955  0.75740887     0.88400
O2294       O  0.75592858  0.72502424  0.68811078    -0.74700
O2295       O  0.75418495  0.73817861  0.80333777    -0.87500
O2296       O  0.67317192  0.81968726  0.76868654    -0.80300
C2297       C  0.68227314  0.76834838  0.84677216     0.93500
C2298       C  0.74202658  0.66905653  0.83104172     0.93400
Mg2299     Mg  0.71793410  0.79800195  0.71239021     1.58000
O2300       O  0.74039091  0.83515174  0.69029814    -0.80200
O2301       O  0.68976881  0.76216846  0.72919946    -0.74500
O2302       O  0.69579792  0.74589083  0.84011899    -0.80300
O2303       O  0.82030831  0.67689639  0.78072857    -0.82000
O2304       O  0.80967809  0.76150459  0.66494186    -0.80300
C2305       C  0.68604224  0.75095943  0.75344779     0.87800
O2306       O  0.75101786  0.76907503  0.70150530    -0.87500
O2307       O  0.73735274  0.80513211  0.75363961    -0.87600
O2308       O  0.78182239  0.81340574  0.74265074    -0.74600
Mg2309     Mg  0.71148435  0.72212882  0.80074961     1.58000
O2310       O  0.68244514  0.79007838  0.83045470    -0.82000
H2311       H  0.74370396  0.67297902  0.73083796    -0.05700
O2312       O  0.80354898  0.75027270  0.73087068    -0.87300
H2313       H  0.83605622  0.77089074  0.74853048    -0.05600
H2314       H  0.72684826  0.75190609  0.67117165    -0.05700
C2315       C  0.81936924  0.75534084  0.75109352     0.87800
C2316       C  0.74467528  0.68875181  0.74753712     0.88400
C2317       C  0.74403137  0.74907675  0.68611020     0.88400
H2318       H  0.76062840  0.83399375  0.77420559    -0.05700
O2319       O  0.74871227  0.78225467  0.81660235    -0.74700
Mg2320     Mg  0.79344771  0.78533109  0.70415780     1.58000
H2321       H  0.77847915  0.75591197  0.83327460    -0.05700
C2322       C  0.83526519  0.67253135  0.75863286     0.93400
O2323       O  0.82126609  0.71651281  0.67379453    -0.82000
C2324       C  0.82198921  0.73846742  0.65777776     0.93500
O2325       O  0.72117950  0.68602567  0.83012274    -0.82000
Mg2326     Mg  0.71071146  0.79823691  0.79069649     1.58200
O2327       O  0.83102552  0.68609627  0.73552413    -0.80300
O2328       O  0.68285945  0.82796915  0.72289922    -0.82000
O2329       O  0.79107999  0.97705742  0.52418735    -0.87600
C2330       C  0.70806126  0.98937619  0.54970262     0.88500
Mg2331     Mg  0.81879995  0.50996163  0.51289117     1.58100
O2332       O  0.71485577  0.96120440  0.98321012    -0.87300
O2333       O  0.77438752  0.93629892  0.50954587    -0.74600
C2334       C  0.74548792  0.58683543  0.92206611     0.93500
O2335       O  0.76400231  0.53001042  0.55739237    -0.74400
O2336       O  0.76502026  0.58885948  0.94048690    -0.82000
Mg2337     Mg  0.76823785  0.98316481  0.56366495     1.58000
C2338       C  0.66898088  0.99603055  0.91650878     0.93400
O2339       O  0.77274674  0.93666083  0.57726036    -0.80200
H2340       H  0.72925373  0.93012322  0.95796396    -0.05600
C2341       C  0.70642052  0.54481302  0.98518265     0.88400
O2342       O  0.81132492  0.50212955  0.96399670    -0.74700
O2343       O  0.72899288  0.97567786  0.54178971    -0.87500
O2344       O  0.66575930  0.98414151  0.94054640    -0.80300
C2345       C  0.65521906  0.93130545  0.51481865     0.93500
C2346       C  0.75548293  0.91598601  0.57891095     0.93400
Mg2347     Mg  0.73230824  0.51824402  0.93310813     1.58000
O2348       O  0.72861821  0.56570790  0.92140249    -0.80200
O2349       O  0.73411056  0.96974499  0.94157611    -0.74500
O2350       O  0.67851815  0.92749134  0.52807647    -0.80300
O2351       O  0.80874063  0.99097330  0.58704981    -0.82000
O2352       O  0.82256007  0.57254764  0.97159112    -0.80300
C2353       C  0.72586750  0.95267029  0.96085960     0.87800
O2354       O  0.77198974  0.52474083  0.95481726    -0.87500
O2355       O  0.71030243  0.52190353  0.97293693    -0.87600
O2356       O  0.72675622  0.56184600  0.98990809    -0.74600
Mg2357     Mg  0.72645148  0.93583308  0.51969351     1.58000
O2358       O  0.65044707  0.95599369  0.99802998    -0.82000
H2359       H  0.81593092  0.94732978  0.50661745    -0.05700
O2360       O  0.78349040  0.53897275  0.51599052    -0.87300
H2361       H  0.76859990  0.56976958  0.54129684    -0.05600
H2362       H  0.79423048  0.50472542  0.92450959    -0.05700
C2363       C  0.77226041  0.54728530  0.53831518     0.87800
C2364       C  0.79483578  0.95341668  0.51337922     0.88400
C2365       C  0.79256964  0.51062597  0.94669607     0.88400
H2366       H  0.68531596  0.55030027  0.99244031    -0.05700
O2367       O  0.68896414  0.99681472  0.53229690    -0.74700
Mg2368     Mg  0.77465671  0.56332141  0.97951607     1.58000
H2369       H  0.70629411  0.99570447  0.57176423    -0.05700
C2370       C  0.82984743  0.50489618  0.58194562     0.93400
O2371       O  0.84884340  0.54553914  0.50086537    -0.82000
C2372       C  0.84621403  0.56728195  0.98370938     0.93500
O2373       O  0.73555217  0.91269243  0.56103107    -0.82000
Mg2374     Mg  0.68046453  0.99136238  0.98609880     1.58200
O2375       O  0.83242579  0.51830219  0.55865251    -0.80300
O2376       O  0.69037796  0.51244363  0.91048837    -0.82000
C2377       C  0.73279626  0.88624931  0.61645041     0.24400
C2378       C  0.75766719  0.89645766  0.60344859    -0.23700
C2379       C  0.78407727  0.88982589  0.61566884     0.19300
C2380       C  0.78559236  0.87189317  0.63944287     0.24300
C2381       C  0.76067104  0.86090620  0.65187076    -0.23700
C2382       C  0.73423531  0.86888879  0.64046094     0.19200
F2383       F  0.70959722  0.85896530  0.65176231    -0.13600
F2384       F  0.70688127  0.89362174  0.60630267    -0.16000
F2385       F  0.81142234  0.86524403  0.65024425    -0.16000
F2386       F  0.80846728  0.90020409  0.60425843    -0.13600
C2387       C  0.71723149  0.63426582  0.86324595     0.24400
C2388       C  0.74244611  0.64681290  0.85318187    -0.23700
C2389       C  0.76821470  0.64019348  0.86660163     0.19300
C2390       C  0.76884268  0.62147820  0.88954499     0.24300
C2391       C  0.74376444  0.60857090  0.89945078    -0.23700
C2392       C  0.71793380  0.61498774  0.88596721     0.19200
F2393       F  0.69333679  0.60295437  0.89502954    -0.13600
F2394       F  0.69196378  0.64050149  0.85097443    -0.16000
F2395       F  0.79429171  0.61542905  0.90156464    -0.16000
F2396       F  0.79284675  0.65267067  0.85822658    -0.13600
C2397       C  0.88407408  0.63689421  0.47978463     0.24400
C2398       C  0.91236139  0.62944483  0.48552464    -0.23700
C2399       C  0.91974856  0.60161585  0.98719010     0.19300
C2400       C  0.89843159  0.58068827  0.98532749     0.24300
C2401       C  0.86974803  0.58842281  0.98132110    -0.23700
C2402       C  0.86313667  0.61610165  0.47727705     0.19200
F2403       F  0.83597969  0.62463200  0.47287615    -0.13600
F2404       F  0.87658624  0.66459975  0.47661712    -0.16000
F2405       F  0.90580866  0.55290636  0.98776866    -0.16000
F2406       F  0.94707173  0.59355951  0.99130725    -0.13600
C2407       C  0.58952560  0.88947131  0.99196494     0.24400
C2408       C  0.58496133  0.87216586  0.01580898    -0.23700
C2409       C  0.61723162  0.86114276  0.52742019     0.19300
C2410       C  0.63773588  0.88260029  0.52853480     0.24300
C2411       C  0.63169390  0.91023361  0.51852189    -0.23700
C2412       C  0.61000053  0.91105436  0.99256784     0.19200
F2413       F  0.61423491  0.92660461  0.96857993    -0.13600
F2414       F  0.57451039  0.88505585  0.96778345    -0.16000
F2415       F  0.66400166  0.87571928  0.53808502    -0.16000
F2416       F  0.62417717  0.83463060  0.53648168    -0.13600
C2417       C  0.63257968  0.79028229  0.90764731     0.24400
C2418       C  0.62403183  0.76358697  0.91825516    -0.23700
C2419       C  0.63684525  0.73904932  0.90723742     0.19300
C2420       C  0.65693361  0.74088514  0.88531682     0.24300
C2421       C  0.66428902  0.76745544  0.87314934    -0.23700
C2422       C  0.65228361  0.79220914  0.88512600     0.19200
F2423       F  0.65894435  0.81823709  0.87459642    -0.13600
F2424       F  0.62040594  0.81444627  0.91776624    -0.16000
F2425       F  0.66793764  0.71621826  0.87506748    -0.16000
F2426       F  0.62937353  0.71304248  0.91729489    -0.13600
C2427       C  0.85102192  0.76470216  0.62143884     0.24400
C2428       C  0.83925906  0.73878779  0.63103954    -0.23700
C2429       C  0.84561543  0.71381051  0.61571903     0.19300
C2430       C  0.86420823  0.71462600  0.59217137     0.24300
C2431       C  0.87720142  0.74034117  0.58386770    -0.23700
C2432       C  0.86976002  0.76539153  0.59834137     0.19200
F2433       F  0.88152647  0.79063773  0.59076262    -0.13600
F2434       F  0.84589558  0.78942158  0.63549392    -0.16000
F2435       F  0.87096628  0.68995631  0.57875634    -0.16000
F2436       F  0.83432893  0.68853485  0.62383327    -0.13600
C2437       C  0.85882244  0.63107899  0.78286067     0.24400
C2438       C  0.85685179  0.64957043  0.75920913    -0.23700
C2439       C  0.87388120  0.64408375  0.73508063     0.19300
C2440       C  0.89193378  0.62060315  0.73444362     0.24300
C2441       C  0.89377801  0.60235937  0.75799897    -0.23700
C2442       C  0.87732561  0.60788202  0.78228134     0.19200
F2443       F  0.87881924  0.59049174  0.80529210    -0.13600
F2444       F  0.84253154  0.63495446  0.80645922    -0.16000
F2445       F  0.90854796  0.61636586  0.71112699    -0.16000
F2446       F  0.87321849  0.66137297  0.71195637    -0.13600
C2447       C  0.60865165  0.87803713  0.71739933     0.24400
C2448       C  0.60500929  0.89727052  0.74020491    -0.23700
C2449       C  0.62175386  0.89386438  0.76477967     0.19300
C2450       C  0.64133164  0.87182393  0.76659575     0.24300
C2451       C  0.64497426  0.85287132  0.74385067    -0.23700
C2452       C  0.62864683  0.85618399  0.71917132     0.19200
F2453       F  0.63179109  0.83800934  0.69691388    -0.13600
F2454       F  0.59282454  0.88011077  0.69341862    -0.16000
F2455       F  0.65756635  0.86971955  0.79031168    -0.16000
F2456       F  0.61915151  0.91162650  0.78741068    -0.13600
C2457       C  0.64434555  0.97056970  0.87721510     0.24400
C2458       C  0.64589794  0.99362860  0.89593212    -0.23700
C2459       C  0.62442173  0.01422726  0.89595767     0.19300
C2460       C  0.60204476  0.01246040  0.87669833     0.24300
C2461       C  0.60081965  0.98998993  0.85686425    -0.23700
C2462       C  0.62202377  0.96870921  0.85775155     0.19200
F2463       F  0.62184417  0.94659825  0.83920367    -0.13600
F2464       F  0.66470438  0.95014144  0.87749474    -0.16000
F2465       F  0.58175530  0.03296317  0.87738999    -0.16000
F2466       F  0.62522294  0.03621362  0.91467189    -0.13600
C2467       C  0.88888226  0.48168438  0.62994498     0.24400
C2468       C  0.89945260  0.50778184  0.64023208    -0.23700
C2469       C  0.88711974  0.53329639  0.63036297     0.19300
C2470       C  0.86434509  0.53256479  0.61132585     0.24300
C2471       C  0.85312653  0.50642144  0.60248513    -0.23700
C2472       C  0.86581148  0.48109270  0.61156954     0.19200
F2473       F  0.85619917  0.45560626  0.60206410    -0.13600
F2474       F  0.90018379  0.45647163  0.63825381    -0.16000
F2475       F  0.85275300  0.55732792  0.60213271    -0.16000
F2476       F  0.89684566  0.55893840  0.63926444    -0.13600
C2477       C  0.95891138  0.86326447  0.65532777     0.24400
C2478       C  0.98343788  0.87832959  0.66320692    -0.23700
C2479       C  0.50961437  0.86975334  0.65054612     0.19300
C2480       C  0.51109576  0.84765903  0.63076174     0.24300
C2481       C  0.48646072  0.83363118  0.62181853    -0.23700
C2482       C  0.96065905  0.84081952  0.63554973     0.19200
F2483       F  0.93647089  0.82744335  0.62754758    -0.13600
F2484       F  0.93324677  0.87051784  0.66636717    -0.16000
F2485       F  0.53677989  0.84048878  0.61967118    -0.16000
F2486       F  0.53405680  0.88341587  0.65722203    -0.13600
C2487       C  0.54103380  0.63133693  0.84870948     0.24400
C2488       C  0.51551039  0.61974527  0.83827976    -0.23700
C2489       C  0.98817482  0.63033758  0.84918850     0.19300
C2490       C  0.98812038  0.65217685  0.86943855     0.24300
C2491       C  0.01366105  0.66334690  0.87981508    -0.23700
C2492       C  0.54059160  0.65379743  0.86854517     0.19200
F2493       F  0.56550834  0.66349333  0.87915542    -0.13600
F2494       F  0.56643227  0.62048446  0.84034606    -0.16000
F2495       F  0.96289648  0.66197632  0.87951167    -0.16000
F2496       F  0.96277926  0.61975577  0.84075667    -0.13600
loop_ 
_geom_bond_atom_site_label_1 
_geom_bond_atom_site_label_2 
_geom_bond_distance 
_geom_bond_site_symmetry_2 
_ccdc_geom_bond_type 
O1           Mg3   2.162       .  S
O1         Mg633   2.168   1_545  S
O1           C36   1.237       .  S
C2         O1263   1.234       .  S
C2           O39   1.268       .  A
C2           H41   1.081       .  S
Mg3        O1280   2.157       .  S
Mg3          O47   2.305       .  S
Mg3          O43   2.308       .  S
Mg3          O14   2.297       .  S
O4          Mg29   2.111   1_655  S
O4        Mg1294   2.156       .  S
O4          C649   1.233   1_655  S
O5          C660   1.272       .  A
O5          Mg29   2.309       .  S
C6            O8   1.269       .  A
C6           O20   1.274       .  A
C6          C257   1.472       .  S
O7         C1283   1.269   1_455  A
O7           Mg9   2.297       .  S
O8          Mg40   2.246       .  S
Mg9          O15   2.147       .  S
Mg9         O625   2.155       .  S
Mg9          O23   2.243       .  S
Mg9          O11   2.281       .  S
C10          O48   1.273       .  A
C10         O640   1.275   1_545  A
C10         C284   1.477       .  S
O11          C18   1.271       .  A
H12          C25   1.081       .  S
C13          O27   1.236       .  S
C13         O652   1.270       .  A
C13          H38   1.082       .  S
O14          C37   1.268       .  A
O15         Mg29   2.151       .  S
O15        C1250   1.234   1_455  S
O16         C634   1.274       .  A
O16         Mg46   2.281       .  S
C17          O30   1.277       .  A
C17        O1270   1.271       .  A
C17         C294   1.494       .  S
C18          O45   1.265       .  A
C18         C264   1.482       .  S
Mg19         O26   2.150       .  S
Mg19        O651   2.175   1_545  S
Mg19         O20   2.295       .  S
Mg19         O21   2.288       .  S
Mg19         O48   2.263       .  S
O21        C1273   1.267   1_545  A
O22        C1265   1.272   1_455  A
O22         Mg29   2.280       .  S
O23          C42   1.269       .  A
O24        C1292   1.274       .  A
O24         Mg40   2.295       .  S
C25         O628   1.233   1_455  S
C25        O1269   1.266   1_465  A
O26         Mg40   2.162       .  S
O26        C1285   1.234       .  S
O27         Mg46   2.159       .  S
O27        Mg643   2.180       .  S
O28         C637   1.270   1_545  A
O28         Mg40   2.299       .  S
Mg29         O45   2.229       .  S
O30         Mg46   2.316       .  S
H31          C36   1.081       .  S
O32         Mg40   2.131       .  S
O32       Mg1251   2.159       .  S
O32         C659   1.234       .  S
H33          C35   1.081       .  S
H34          C37   1.081       .  S
C35         O656   1.234       .  S
C35        O1255   1.267       .  A
C36         O629   1.272   1_545  A
C37        O1274   1.234   1_455  S
O39         Mg46   2.297       .  S
C42         O671   1.278       .  A
C42         C277   1.470       .  S
O43          C44   1.277       .  A
C44        O1272   1.273   1_455  A
C44         C304   1.495       .  S
Mg46       O1252   2.154       .  S
O47         C666   1.277   1_545  A
O49         Mg57   2.150       .  S
O49       Mg1299   2.164   1_455  S
O49          C84   1.236       .  S
C50          O63   1.235       .  S
C50          O87   1.271       .  A
C50          H89   1.082       .  S
Mg51         O80   2.173       .  S
Mg51       O1297   2.158       .  S
Mg51         O95   2.309       .  S
Mg51         O91   2.283       .  S
Mg51        O374   2.299       .  S
O52         Mg94   2.154       .  S
O52        Mg389   2.169   1_554  S
O52          C73   1.237       .  S
O53          C84   1.272       .  A
O53         Mg77   2.314       .  S
C54          O56   1.274       .  A
C54          O68   1.276       .  A
C54         C247   1.487       .  S
O55          C83   1.271       .  A
O55       Mg1305   2.308       .  S
O56         Mg88   2.299       .  S
Mg57         O63   2.165       .  S
Mg57         O71   2.293       .  S
Mg57         O59   2.319       .  S
Mg57       O1303   2.310   1_455  S
C58          O64   1.275   1_655  A
C58        O1344   1.273       .  A
C58         C297   1.486       .  S
O59          C66   1.277       .  A
H60          C73   1.082       .  S
C61          O75   1.235       .  S
C61          O76   1.270       .  A
C61          H86   1.081       .  S
O62          C85   1.271       .  A
O62        Mg363   2.302   1_554  S
O63         Mg77   2.151       .  S
O64         Mg94   2.306       .  S
C65          O70   1.275       .  A
C65         O390   1.272       .  A
C65         C224   1.478       .  S
C66          O93   1.272       .  A
C66         C234   1.482       .  S
Mg67         O74   2.166       .  S
Mg67         O75   2.148       .  S
Mg67         O68   2.314       .  S
Mg67         O96   2.289       .  S
Mg67       O1317   2.315       .  S
O69          C73   1.273       .  A
O69       Mg1315   2.314   1_455  S
O70         Mg77   2.317       .  S
O71        C1338   1.273       .  A
O72          C92   1.275   1_554  A
O72         Mg88   2.302       .  S
O74         Mg88   2.163       .  S
O74          C85   1.236       .  S
O75       Mg1342   2.163       .  S
O76         Mg88   2.307       .  S
Mg77        O364   2.166       .  S
Mg77         O93   2.282       .  S
O78         C377   1.272       .  A
O78         Mg94   2.293       .  S
H79          C84   1.081       .  S
O80        Mg400   2.166       .  S
O80          C83   1.236       .  S
H81          C83   1.082       .  S
H82          C85   1.082       .  S
O87        Mg406   2.307       .  S
Mg88        O392   2.165   1_554  S
C90          O95   1.276       .  A
C90        O1319   1.274       .  A
C90         C307   1.487       .  S
O91         C404   1.272       .  A
C92         O403   1.272       .  A
C92         C214   1.477       .  S
Mg94       O1323   2.163   1_455  S
Mg94        O399   2.310   1_554  S
O96        C1306   1.273       .  A
O97         Mg99   2.170       .  S
O97        Mg105   2.172       .  S
O97         C132   1.236       .  S
C98         O111   1.234       .  S
C98         O135   1.268       .  A
C98         H137   1.083       .  S
Mg99        O128   2.163       .  S
Mg99        O143   2.308       .  S
Mg99        O139   2.323       .  S
Mg99        O110   2.294       .  S
O100       Mg142   2.159       .  S
O100       Mg125   2.119       .  S
O100        C121   1.234       .  S
O101        C132   1.271       .  A
O101       Mg125   2.303       .  S
C102        O104   1.269       .  A
C102        O116   1.273       .  A
C102        C197   1.480       .  S
O103        C131   1.267       .  A
O103       Mg105   2.290       .  S
O104       Mg136   2.249       .  S
Mg105       O111   2.141       .  S
Mg105       O119   2.238       .  S
Mg105       O107   2.291       .  S
C106        O144   1.269       .  A
C106        O112   1.276       .  A
C106        C267   1.468       .  S
O107        C114   1.273       .  A
H108        C121   1.082       .  S
C109        O123   1.237       .  S
C109        O124   1.271       .  A
C109        H134   1.081       .  S
O110        C133   1.267       .  A
O111       Mg125   2.153       .  S
O112       Mg142   2.296       .  S
C113        O126   1.279       .  A
C113        O118   1.270       .  A
C113        C237   1.499       .  S
C114        O141   1.266       .  A
C114        C204   1.477       .  S
Mg115       O122   2.140       .  S
Mg115       O123   2.173       .  S
Mg115       O116   2.292       .  S
Mg115       O117   2.287       .  S
Mg115       O144   2.236       .  S
O117        C121   1.267       .  A
O118       Mg125   2.271       .  S
O119        C138   1.270       .  A
O120        C140   1.274       .  A
O120       Mg136   2.290       .  S
O122       Mg136   2.152       .  S
O122        C133   1.233       .  S
O123       Mg142   2.166       .  S
O124       Mg136   2.303       .  S
Mg125       O141   2.239       .  S
O126       Mg142   2.327       .  S
H127        C132   1.081       .  S
O128       Mg136   2.126       .  S
O128        C131   1.233       .  S
H129        C131   1.081       .  S
H130        C133   1.083       .  S
O135       Mg142   2.296       .  S
C138        O143   1.278       .  A
C138        C254   1.487       .  S
O139        C140   1.279       .  A
C140        C244   1.499       .  S
O145       Mg153   2.161       .  S
O145       Mg771   2.163       .  S
O145        C180   1.235       .  S
C146        O159   1.234       .  S
C146        O183   1.268       .  A
C146        H185   1.081       .  S
Mg147       O176   2.154       .  S
Mg147       O769   2.162   1_545  S
Mg147       O191   2.282       .  S
Mg147       O187   2.263       .  S
Mg147       O470   2.297   1_554  S
O148       Mg190   2.163       .  S
O148       Mg485   2.144       .  S
O148        C169   1.236       .  S
O149        C180   1.271       .  A
O149       Mg173   2.311       .  S
C150        O152   1.270       .  A
C150        O164   1.275       .  A
C150        C207   1.479       .  S
O151        C179   1.270       .  A
O151       Mg777   2.297   1_545  S
O152       Mg184   2.242       .  S
Mg153       O159   2.153       .  S
Mg153       O167   2.249       .  S
Mg153       O155   2.295       .  S
Mg153       O775   2.289       .  S
C154        O160   1.270       .  A
C154        O816   1.273       .  A
C154        C274   1.478       .  S
O155        C162   1.273       .  A
H156        C169   1.081       .  S
C157        O171   1.236       .  S
C157        O172   1.271       .  A
C157        H182   1.081       .  S
O158        C181   1.268       .  A
O158       Mg459   2.298       .  S
O159       Mg173   2.149       .  S
O160       Mg190   2.272       .  S
C161        O166   1.280       .  A
C161        O486   1.271   1_554  A
C161        C227   1.494       .  S
C162        O189   1.273       .  A
C162        C194   1.478       .  S
Mg163       O170   2.155       .  S
Mg163       O171   2.158       .  S
Mg163       O164   2.310       .  S
Mg163       O192   2.262       .  S
Mg163       O789   2.304   1_545  S
O165        C169   1.270       .  A
O165       Mg787   2.296       .  S
O166       Mg173   2.351       .  S
O167        C810   1.270       .  A
O168        C188   1.278       .  A
O168       Mg184   2.321       .  S
O170       Mg184   2.152       .  S
O170        C181   1.234       .  S
O171       Mg814   2.168   1_545  S
O172       Mg184   2.308       .  S
Mg173       O460   2.144   1_554  S
Mg173       O189   2.262       .  S
O174        C473   1.270       .  A
O174       Mg190   2.253       .  S
H175        C180   1.081       .  S
O176       Mg496   2.130   1_554  S
O176        C179   1.236       .  S
H177        C179   1.081       .  S
H178        C181   1.081       .  S
O183       Mg502   2.296   1_554  S
Mg184       O488   2.123       .  S
C186        O191   1.270       .  A
C186        O791   1.270   1_545  A
C186        C287   1.471       .  S
O187        C500   1.271   1_554  A
C188        O499   1.272       .  A
C188        C217   1.493       .  S
Mg190       O795   2.145       .  S
Mg190       O495   2.296       .  S
O192        C778   1.270   1_545  A
C193        C194   1.405       .  A
C193        C198   1.394       .  A
C193        F200   1.358       .  S
C194        C195   1.408       .  A
C195        C196   1.402       .  A
C195        F202   1.358       .  S
C196        C197   1.409       .  A
C196        F201   1.358       .  S
C197        C198   1.409       .  A
C198        F199   1.358       .  S
C203        C204   1.408       .  A
C203        C208   1.402       .  A
C203        F210   1.358       .  S
C204        C205   1.407       .  A
C205        C206   1.393       .  A
C205        F212   1.359       .  S
C206        C207   1.407       .  A
C206        F211   1.359       .  S
C207        C208   1.408       .  A
C208        F209   1.358       .  S
C213        C214   1.403       .  A
C213        C218   1.398       .  A
C213        F220   1.359       .  S
C214        C527   1.402       .  A
C215        C216   1.406       .  A
C215        C526   1.403       .  A
C215        F222   1.357       .  S
C216        C217   1.414       .  A
C216        F221   1.357       .  S
C217        C530   1.411       .  A
C218        C529   1.412       .  A
C218        F219   1.358       .  S
C223        C224   1.400       .  A
C223        C228   1.402       .  A
C223        F230   1.358       .  S
C224        C537   1.406       .  A
C225        C226   1.407       .  A
C225        C536   1.408       .  A
C225        F232   1.358       .  S
C226        C227   1.409       .  A
C226        F231   1.358       .  S
C227        C540   1.414   1_554  A
C228        C539   1.417       .  A
C228        F229   1.358       .  S
C233        C234   1.409       .  A
C233        C238   1.407       .  A
C233        F240   1.358       .  S
C234        C235   1.400       .  A
C235        C236   1.399       .  A
C235        F242   1.358       .  S
C236        C237   1.419       .  A
C236        F241   1.358       .  S
C237        C238   1.410       .  A
C238        F239   1.357       .  S
C243        C244   1.416       .  A
C243        C248   1.400       .  A
C243        F250   1.358       .  S
C244        C245   1.410       .  A
C245        C246   1.409       .  A
C245        F252   1.357       .  S
C246        C247   1.410       .  A
C246        F251   1.358       .  S
C247        C248   1.403       .  A
C248        F249   1.358       .  S
C253        C254   1.416       .  A
C253        C258   1.399       .  A
C253        F260   1.358       .  S
C254        C255   1.410       .  A
C255        C256   1.395       .  A
C255        F262   1.358       .  S
C256        C257   1.405       .  A
C256        F261   1.358       .  S
C257        C258   1.402       .  A
C258        F259   1.358       .  S
C263        C264   1.413       .  A
C263        C268   1.398       .  A
C263        F270   1.358       .  S
C264        C265   1.411       .  A
C265        C266   1.392       .  A
C265        F272   1.358       .  S
C266        C267   1.403       .  A
C266        F271   1.358       .  S
C267        C268   1.404       .  A
C268        F269   1.358       .  S
C273        C274   1.412       .  A
C273        C278   1.399       .  A
C273        F280   1.358       .  S
C274        C275   1.404       .  A
C275        C276   1.400       .  A
C275        F282   1.358       .  S
C276        C277   1.407       .  A
C276        F281   1.358       .  S
C277        C278   1.399       .  A
C278        F279   1.358       .  S
C283        C284   1.408   1_565  A
C283        C288   1.391       .  A
C283        F290   1.358       .  S
C284        C285   1.408       .  A
C285        C286   1.401       .  A
C285        F292   1.358       .  S
C286        C287   1.407       .  A
C286        F291   1.358       .  S
C287        C288   1.403   1_545  A
C288        F289   1.359       .  S
C293        C294   1.409       .  A
C293        C298   1.408       .  A
C293        F300   1.357       .  S
C294       C1543   1.415       .  A
C295        C296   1.397       .  A
C295       C1542   1.415   1_455  A
C295        F302   1.358       .  S
C296        C297   1.402   1_455  A
C296        F301   1.358       .  S
C297       C1546   1.411       .  A
C298       C1545   1.411       .  A
C298        F299   1.358       .  S
C303        C304   1.410       .  A
C303        C308   1.407       .  A
C303        F310   1.357       .  S
C304       C1553   1.414   1_455  A
C305        C306   1.399       .  A
C305       C1552   1.414       .  A
C305        F312   1.358       .  S
C306        C307   1.404       .  A
C306        F311   1.358       .  S
C307       C1556   1.409       .  A
C308       C1555   1.410       .  A
C308        F309   1.358       .  S
O313       Mg315   2.154   1_565  S
O313       Mg945   2.160       .  S
O313        C348   1.237   1_565  S
C314       O1575   1.235       .  S
C314        O351   1.269       .  A
C314        H353   1.081       .  S
Mg315      O1592   2.159       .  S
Mg315       O359   2.302       .  S
Mg315       O355   2.295       .  S
Mg315       O326   2.297       .  S
O316      Mg1606   2.148       .  S
O316       Mg341   2.121   1_655  S
O316        C961   1.234   1_655  S
O317        C972   1.270       .  A
O317       Mg341   2.302       .  S
C318        O320   1.269       .  A
C318        O332   1.273       .  A
C318        C569   1.474       .  S
O319       C1595   1.268   1_455  A
O319       Mg321   2.291       .  S
O320       Mg352   2.247       .  S
Mg321       O937   2.164       .  S
Mg321       O327   2.151       .  S
Mg321       O335   2.256       .  S
Mg321       O323   2.288       .  S
C322        O360   1.270       .  A
C322        O952   1.275   1_545  A
C322        C596   1.462       .  S
O323        C330   1.273       .  A
H324        C337   1.081       .  S
C325        O339   1.236       .  S
C325        O964   1.270       .  A
C325        H350   1.081       .  S
O326        C349   1.268       .  A
O327       Mg341   2.155       .  S
O327       C1562   1.235   1_455  S
O328        C946   1.276       .  A
O328       Mg358   2.295       .  S
C329        O342   1.277       .  A
C329       O1582   1.272       .  A
C329        C606   1.494       .  S
C330        O357   1.267       .  A
C330        C576   1.484       .  S
Mg331       O338   2.143       .  S
Mg331       O963   2.184   1_545  S
Mg331       O332   2.291       .  S
Mg331       O333   2.285       .  S
Mg331       O360   2.246       .  S
O333       C1585   1.266   1_545  A
O334       C1577   1.273   1_455  A
O334       Mg341   2.287       .  S
O335        C354   1.271       .  A
O336       C1604   1.273       .  A
O336       Mg352   2.289       .  S
C337        O940   1.233   1_455  S
C337       O1581   1.266   1_465  A
O338       Mg352   2.161       .  S
O338       C1597   1.234       .  S
O339       Mg955   2.170       .  S
O339       Mg358   2.158       .  S
O340        C949   1.270   1_545  A
O340       Mg352   2.296       .  S
Mg341       O357   2.234       .  S
O342       Mg358   2.315       .  S
H343        C348   1.081       .  S
O344      Mg1563   2.158       .  S
O344       Mg352   2.129       .  S
O344        C971   1.234       .  S
H345        C347   1.081       .  S
H346        C349   1.081       .  S
C347        O968   1.234       .  S
C347       O1567   1.268       .  A
C348        O941   1.272   1_545  A
C349       O1586   1.234   1_455  S
O351       Mg358   2.301       .  S
C354        O983   1.275       .  A
C354        C589   1.487       .  S
O355        C356   1.275       .  A
C356       O1584   1.273   1_455  A
C356        C616   1.493       .  S
Mg358      O1564   2.150       .  S
O359        C978   1.276   1_545  A
O361      Mg1611   2.160   1_455  S
O361       Mg369   2.152       .  S
O361        C396   1.236       .  S
C362        O375   1.235       .  S
C362        O399   1.271       .  A
C362        H401   1.082       .  S
Mg363      O1609   2.159       .  S
Mg363       O392   2.170       .  S
Mg363       O407   2.319       .  S
Mg363       O403   2.282       .  S
O364       Mg406   2.160       .  S
O364        C385   1.236       .  S
O365        C396   1.271       .  A
O365       Mg389   2.312       .  S
C366        O368   1.274       .  A
C366        O380   1.276       .  A
C366        C559   1.486       .  S
O367        C395   1.271       .  A
O367      Mg1617   2.306       .  S
O368       Mg400   2.294       .  S
Mg369       O375   2.166       .  S
Mg369      O1615   2.308   1_455  S
Mg369       O383   2.287       .  S
Mg369       O371   2.319       .  S
C370       O1656   1.274       .  A
C370        O376   1.275   1_655  A
C370        C609   1.488       .  S
O371        C378   1.276       .  A
H372        C385   1.082       .  S
C373        O387   1.234       .  S
C373        O388   1.270       .  A
C373        H398   1.081       .  S
O374        C397   1.270       .  A
O375       Mg389   2.149       .  S
O376       Mg406   2.303       .  S
C377        O382   1.274   1_554  A
C377        C536   1.481       .  S
C378        O405   1.271       .  A
C378        C546   1.483       .  S
Mg379       O386   2.163       .  S
Mg379       O387   2.147       .  S
Mg379       O380   2.310       .  S
Mg379      O1629   2.314       .  S
Mg379       O408   2.295       .  S
O381        C385   1.272       .  A
O381      Mg1627   2.310   1_455  S
O382       Mg389   2.314       .  S
O383       C1650   1.273       .  A
O384        C404   1.274       .  A
O384       Mg400   2.294       .  S
O386       Mg400   2.165       .  S
O386        C397   1.235       .  S
O387      Mg1654   2.155       .  S
O388       Mg400   2.305       .  S
Mg389       O405   2.278       .  S
O390       Mg406   2.284       .  S
H391        C396   1.081       .  S
O392        C395   1.235       .  S
H393        C395   1.082       .  S
H394        C397   1.082       .  S
C402       O1631   1.273       .  A
C402        O407   1.277       .  A
C402        C619   1.483       .  S
C404        C526   1.479       .  S
Mg406      O1635   2.157   1_455  S
O408       C1618   1.273       .  A
O409       Mg411   2.167       .  S
O409       Mg417   2.171       .  S
O409        C444   1.237       .  S
C410        O423   1.233       .  S
C410        O447   1.268       .  A
C410        H449   1.083       .  S
Mg411       O440   2.162       .  S
Mg411       O455   2.316       .  S
Mg411       O451   2.322       .  S
Mg411       O422   2.297       .  S
O412       Mg454   2.156       .  S
O412       Mg437   2.118       .  S
O412        C433   1.233       .  S
O413        C444   1.271       .  A
O413       Mg437   2.301       .  S
C414        O416   1.268       .  A
C414        O428   1.273       .  A
C414        C509   1.480       .  S
O415        C443   1.267       .  A
O415       Mg417   2.288       .  S
O416       Mg448   2.244       .  S
Mg417       O423   2.145       .  S
Mg417       O431   2.239       .  S
Mg417       O419   2.289       .  S
C418        O456   1.270       .  A
C418        O424   1.275       .  A
C418        C579   1.468       .  S
O419        C426   1.273       .  A
H420        C433   1.082       .  S
C421        O435   1.237       .  S
C421        O436   1.272       .  A
C421        H446   1.081       .  S
O422        C445   1.268       .  A
O423       Mg437   2.154       .  S
O424       Mg454   2.293       .  S
C425        O438   1.278       .  A
C425        O430   1.272       .  A
C425        C549   1.499       .  S
C426        O453   1.266       .  A
C426        C516   1.476       .  S
Mg427       O434   2.144       .  S
Mg427       O435   2.177       .  S
Mg427       O428   2.292       .  S
Mg427       O429   2.286       .  S
Mg427       O456   2.239       .  S
O429        C433   1.267       .  A
O430       Mg437   2.282       .  S
O431        C450   1.270       .  A
O432        C452   1.273       .  A
O432       Mg448   2.286       .  S
O434       Mg448   2.150       .  S
O434        C445   1.234       .  S
O435       Mg454   2.168       .  S
O436       Mg448   2.305       .  S
Mg437       O453   2.234       .  S
O438       Mg454   2.322       .  S
H439        C444   1.081       .  S
O440       Mg448   2.123       .  S
O440        C443   1.233       .  S
H441        C443   1.081       .  S
H442        C445   1.083       .  S
O447       Mg454   2.298       .  S
C450        O455   1.278       .  A
C450        C566   1.489       .  S
O451        C452   1.279       .  A
C452        C556   1.496       .  S
O457      Mg1083   2.162       .  S
O457       Mg465   2.149       .  S
O457        C492   1.236       .  S
C458        O471   1.233       .  S
C458        O495   1.268       .  A
C458        H497   1.081       .  S
Mg459      O1081   2.153   1_545  S
Mg459       O488   2.158       .  S
Mg459       O503   2.284       .  S
Mg459       O499   2.268       .  S
O460       Mg502   2.150       .  S
O460        C481   1.237       .  S
O461        C492   1.272       .  A
O461       Mg485   2.314       .  S
C462        O464   1.271       .  A
C462        O476   1.275       .  A
C462        C519   1.477       .  S
O463        C491   1.268       .  A
O463      Mg1089   2.287   1_545  S
O464       Mg496   2.247       .  S
Mg465       O471   2.159       .  S
Mg465      O1087   2.299       .  S
Mg465       O479   2.264       .  S
Mg465       O467   2.293       .  S
C466       O1128   1.271       .  A
C466        O472   1.269       .  A
C466        C586   1.468       .  S
O467        C474   1.273       .  A
H468        C481   1.081       .  S
C469        O483   1.235       .  S
C469        O484   1.270       .  A
C469        H494   1.081       .  S
O470        C493   1.268       .  A
O471       Mg485   2.154       .  S
O472       Mg502   2.280       .  S
C473        O478   1.280       .  A
C473        C539   1.497       .  S
C474        O501   1.273       .  A
C474        C506   1.476       .  S
Mg475       O482   2.151       .  S
Mg475       O483   2.162       .  S
Mg475       O476   2.304       .  S
Mg475      O1101   2.300   1_545  S
Mg475       O504   2.270       .  S
O477        C481   1.272       .  A
O477      Mg1099   2.311       .  S
O478       Mg485   2.349       .  S
O479       C1122   1.271       .  A
O480        C500   1.278       .  A
O480       Mg496   2.323       .  S
O482       Mg496   2.154       .  S
O482        C493   1.234       .  S
O483      Mg1126   2.155   1_545  S
O484       Mg496   2.303       .  S
Mg485       O501   2.262       .  S
O486       Mg502   2.259       .  S
H487        C492   1.081       .  S
O488        C491   1.235       .  S
H489        C491   1.081       .  S
H490        C493   1.081       .  S
C498       O1103   1.269   1_545  A
C498        O503   1.271       .  A
C498        C599   1.484       .  S
C500        C529   1.496       .  S
Mg502      O1107   2.165       .  S
O504       C1090   1.270   1_545  A
C505        C506   1.405       .  A
C505        C510   1.394       .  A
C505        F512   1.358       .  S
C506        C507   1.407       .  A
C507        C508   1.401       .  A
C507        F514   1.358       .  S
C508        C509   1.409       .  A
C508        F513   1.358       .  S
C509        C510   1.409       .  A
C510        F511   1.358       .  S
C515        C516   1.408       .  A
C515        C520   1.400       .  A
C515        F522   1.358       .  S
C516        C517   1.407       .  A
C517        C518   1.393       .  A
C517        F524   1.359       .  S
C518        C519   1.407       .  A
C518        F523   1.358       .  S
C519        C520   1.407       .  A
C520        F521   1.358       .  S
C525        C526   1.404       .  A
C525        C530   1.397       .  A
C525        F532   1.359       .  S
C527        C528   1.406       .  A
C527        F534   1.357   1_556  S
C528        C529   1.416       .  A
C528        F533   1.357   1_556  S
C530        F531   1.358       .  S
C535        C536   1.401   1_556  A
C535        C540   1.402       .  A
C535        F542   1.358       .  S
C537        C538   1.405       .  A
C537        F544   1.358       .  S
C538        C539   1.410       .  A
C538        F543   1.358       .  S
C540        F541   1.358       .  S
C545        C546   1.409       .  A
C545        C550   1.406       .  A
C545        F552   1.358       .  S
C546        C547   1.401       .  A
C547        C548   1.400       .  A
C547        F554   1.358       .  S
C548        C549   1.419       .  A
C548        F553   1.358       .  S
C549        C550   1.410       .  A
C550        F551   1.357       .  S
C555        C556   1.415       .  A
C555        C560   1.398       .  A
C555        F562   1.358       .  S
C556        C557   1.409       .  A
C557        C558   1.408       .  A
C557        F564   1.357       .  S
C558        C559   1.410       .  A
C558        F563   1.358       .  S
C559        C560   1.402       .  A
C560        F561   1.358       .  S
C565        C566   1.416       .  A
C565        C570   1.398       .  A
C565        F572   1.358       .  S
C566        C567   1.410       .  A
C567        C568   1.397       .  A
C567        F574   1.358       .  S
C568        C569   1.406       .  A
C568        F573   1.358       .  S
C569        C570   1.402       .  A
C570        F571   1.358       .  S
C575        C576   1.414       .  A
C575        C580   1.397       .  A
C575        F582   1.358       .  S
C576        C577   1.411       .  A
C577        C578   1.394       .  A
C577        F584   1.358       .  S
C578        C579   1.403       .  A
C578        F583   1.358       .  S
C579        C580   1.402       .  A
C580        F581   1.358       .  S
C585        C586   1.402       .  A
C585        C590   1.400       .  A
C585        F592   1.358       .  S
C586        C587   1.401       .  A
C587        C588   1.395       .  A
C587        F594   1.359       .  S
C588        C589   1.413       .  A
C588        F593   1.358       .  S
C589        C590   1.413       .  A
C590        F591   1.358       .  S
C595        C596   1.400   1_565  A
C595        C600   1.392       .  A
C595        F602   1.359       .  S
C596        C597   1.399       .  A
C597        C598   1.400       .  A
C597        F604   1.358       .  S
C598        C599   1.415       .  A
C598        F603   1.358       .  S
C599        C600   1.411   1_545  A
C600        F601   1.358       .  S
C605        C606   1.409       .  A
C605        C610   1.409       .  A
C605        F612   1.357       .  S
C606       C1855   1.413       .  A
C607       C1854   1.413   1_455  A
C607        C608   1.397       .  A
C607        F614   1.358       .  S
C608        C609   1.404   1_455  A
C608        F613   1.358       .  S
C609       C1858   1.412       .  A
C610       C1857   1.412       .  A
C610        F611   1.358       .  S
C615        C616   1.410       .  A
C615        C620   1.406       .  A
C615        F622   1.358       .  S
C616       C1865   1.414   1_455  A
C617       C1864   1.415       .  A
C617        C618   1.399       .  A
C617        F624   1.358       .  S
C618        C619   1.402       .  A
C618        F623   1.358       .  S
C619       C1868   1.409       .  A
C620       C1867   1.409       .  A
C620        F621   1.358       .  S
O625       Mg627   2.164       .  S
O625        C660   1.236       .  S
C626       O1887   1.235       .  S
C626        O663   1.269       .  A
C626        H665   1.081       .  S
Mg627      O1904   2.160       .  S
Mg627       O671   2.327       .  S
Mg627       O667   2.311       .  S
Mg627       O638   2.299       .  S
O628      Mg1918   2.152       .  S
O628       Mg653   2.121   1_655  S
O629       Mg653   2.305       .  S
C630        O632   1.269       .  A
C630        O644   1.272       .  A
C630        C881   1.468       .  S
O631       C1907   1.267   1_465  A
O631       Mg633   2.290       .  S
O632       Mg664   2.245       .  S
Mg633       O639   2.145       .  S
Mg633       O647   2.244       .  S
Mg633       O635   2.289       .  S
C634        O672   1.271       .  A
C634        C908   1.463       .  S
O635        C642   1.272       .  A
H636        C649   1.081       .  S
C637        O651   1.236       .  S
C637        H662   1.082       .  S
O638        C661   1.268       .  A
O639       Mg653   2.146       .  S
O639       C1874   1.234   1_455  S
O640       Mg670   2.285       .  S
C641        O654   1.277       .  A
C641       O1894   1.272       .  A
C641        C918   1.497       .  S
C642        O669   1.267       .  A
C642        C888   1.486       .  S
Mg643       O650   2.151       .  S
Mg643       O644   2.279       .  S
Mg643       O645   2.282       .  S
Mg643       O672   2.255       .  S
O645       C1897   1.266       .  A
O646       C1889   1.272   1_455  A
O646       Mg653   2.283       .  S
O647        C666   1.270       .  A
O648       C1916   1.276       .  A
O648       Mg664   2.302       .  S
C649       O1893   1.266   1_455  A
O650       Mg664   2.161       .  S
O650       C1909   1.233       .  S
O651       Mg670   2.162       .  S
O652       Mg664   2.299       .  S
Mg653       O669   2.237       .  S
O654       Mg670   2.320       .  S
H655        C660   1.081       .  S
O656      Mg1875   2.165       .  S
O656       Mg664   2.130       .  S
H657        C659   1.081       .  S
H658        C661   1.081       .  S
C659       O1879   1.268   1_545  A
C661       O1898   1.234   1_455  S
O663       Mg670   2.298       .  S
C666        C901   1.485       .  S
O667        C668   1.278       .  A
C668       O1896   1.274   1_455  A
C668        C928   1.496       .  S
Mg670      O1876   2.151       .  S
O673      Mg1923   2.163   1_455  S
O673       Mg681   2.154       .  S
O673        C708   1.235       .  S
C674        O687   1.234       .  S
C674        O711   1.269       .  A
C674        H713   1.082       .  S
Mg675      O1921   2.160       .  S
Mg675       O704   2.171       .  S
Mg675       O719   2.314       .  S
Mg675       O715   2.289       .  S
Mg675       O998   2.304       .  S
O676       Mg718   2.154       .  S
O676      Mg1013   2.172   1_554  S
O676        C697   1.236       .  S
O677        C708   1.271       .  A
O677       Mg701   2.310       .  S
C678        O680   1.274       .  A
C678        O692   1.275       .  A
C678        C871   1.486       .  S
O679        C707   1.272       .  A
O679      Mg1929   2.308       .  S
O680       Mg712   2.299       .  S
Mg681       O687   2.171       .  S
Mg681      O1927   2.307   1_455  S
Mg681       O695   2.303       .  S
Mg681       O683   2.316       .  S
C682       O1968   1.272       .  A
C682        O688   1.277   1_655  A
C682        C921   1.489       .  S
O683        C690   1.277       .  A
H684        C697   1.082       .  S
C685        O699   1.235       .  S
C685        O700   1.270       .  A
C685        H710   1.081       .  S
O686        C709   1.270       .  A
O686       Mg987   2.301   1_554  S
O687       Mg701   2.160       .  S
O688       Mg718   2.320       .  S
C689       O1014   1.274       .  A
C689        O694   1.276       .  A
C689        C848   1.487       .  S
C690        O717   1.274       .  A
C690        C858   1.484       .  S
Mg691       O698   2.166       .  S
Mg691       O699   2.153       .  S
Mg691       O692   2.301       .  S
Mg691      O1941   2.310       .  S
Mg691       O720   2.293       .  S
O693        C697   1.272       .  A
O693      Mg1939   2.313   1_455  S
O694       Mg701   2.313       .  S
O695       C1962   1.275       .  A
O696        C716   1.276   1_554  A
O696       Mg712   2.302       .  S
O698       Mg712   2.164       .  S
O698        C709   1.235       .  S
O699      Mg1966   2.161       .  S
O700       Mg712   2.306       .  S
Mg701       O988   2.161       .  S
Mg701       O717   2.286       .  S
O702       C1001   1.272       .  A
O702       Mg718   2.286       .  S
H703        C708   1.081       .  S
O704      Mg1024   2.165       .  S
O704        C707   1.236       .  S
H705        C707   1.082       .  S
H706        C709   1.082       .  S
O711      Mg1030   2.300       .  S
Mg712      O1016   2.165   1_554  S
C714       O1943   1.274       .  A
C714        O719   1.276       .  A
C714        C931   1.490       .  S
O715       C1028   1.273       .  A
C716       O1027   1.275       .  A
C716        C838   1.489       .  S
Mg718      O1947   2.156   1_455  S
Mg718      O1023   2.317   1_554  S
O720       C1930   1.273       .  A
O721       Mg723   2.161       .  S
O721       Mg729   2.169       .  S
O721        C756   1.236       .  S
C722        O735   1.233       .  S
C722        O759   1.267       .  A
C722        H761   1.083       .  S
Mg723       O752   2.162       .  S
Mg723       O767   2.302       .  S
Mg723       O763   2.309       .  S
Mg723       O734   2.297       .  S
O724       Mg766   2.158       .  S
O724       Mg749   2.120       .  S
O724        C745   1.233       .  S
O725        C756   1.271       .  A
O725       Mg749   2.301       .  S
C726        O728   1.268       .  A
C726        O740   1.274       .  A
C726        C821   1.482       .  S
O727        C755   1.267       .  A
O727       Mg729   2.288       .  S
O728       Mg760   2.246       .  S
Mg729       O735   2.140       .  S
Mg729       O743   2.229       .  S
Mg729       O731   2.278       .  S
C730        O768   1.270       .  A
C730        O736   1.276       .  A
C730        C891   1.471       .  S
O731        C738   1.271       .  A
H732        C745   1.082       .  S
C733        O747   1.237       .  S
C733        O748   1.272       .  A
C733        H758   1.081       .  S
O734        C757   1.268       .  A
O735       Mg749   2.152       .  S
O736       Mg766   2.300       .  S
C737        O750   1.279       .  A
C737        O742   1.272       .  A
C737        C861   1.498       .  S
C738        O765   1.267       .  A
C738        C828   1.474       .  S
Mg739       O746   2.147       .  S
Mg739       O747   2.177       .  S
Mg739       O740   2.296       .  S
Mg739       O741   2.287       .  S
Mg739       O768   2.242       .  S
O741        C745   1.267       .  A
O742       Mg749   2.281       .  S
O743        C762   1.268       .  A
O744        C764   1.274       .  A
O744       Mg760   2.294       .  S
O746       Mg760   2.151       .  S
O746        C757   1.233       .  S
O747       Mg766   2.173       .  S
O748       Mg760   2.307       .  S
Mg749       O765   2.242       .  S
O750       Mg766   2.325       .  S
H751        C756   1.081       .  S
O752       Mg760   2.123       .  S
O752        C755   1.234       .  S
H753        C755   1.081       .  S
H754        C757   1.083       .  S
O759       Mg766   2.296       .  S
C762        O767   1.276       .  A
C762        C878   1.485       .  S
O763        C764   1.277       .  A
C764        C868   1.494       .  S
O769       Mg777   2.152       .  S
O769        C804   1.235       .  S
C770        O783   1.233       .  S
C770        O807   1.268       .  A
C770        H809   1.081       .  S
Mg771       O800   2.161       .  S
Mg771       O815   2.276       .  S
Mg771       O811   2.284   1_554  S
Mg771      O1094   2.298   1_554  S
O772       Mg814   2.160       .  S
O772      Mg1109   2.142       .  S
O772        C793   1.236       .  S
O773        C804   1.271       .  A
O773       Mg797   2.312       .  S
C774        O776   1.271       .  A
C774        O788   1.274       .  A
C774        C831   1.474       .  S
O775        C803   1.269       .  A
O776       Mg808   2.246       .  S
Mg777       O783   2.151       .  S
Mg777       O791   2.249       .  S
Mg777       O779   2.298       .  S
C778        O784   1.270       .  A
C778        C898   1.462       .  S
O779        C786   1.273       .  A
H780        C793   1.081       .  S
C781        O795   1.235       .  S
C781        O796   1.269       .  A
C781        H806   1.081       .  S
O782        C805   1.269       .  A
O782      Mg1083   2.298       .  S
O783       Mg797   2.150       .  S
O784       Mg814   2.280       .  S
C785       O1110   1.270   1_554  A
C785        O790   1.279       .  A
C785        C851   1.490       .  S
C786        O813   1.273       .  A
C786        C818   1.477       .  S
Mg787       O794   2.157       .  S
Mg787       O795   2.163       .  S
Mg787       O788   2.299       .  S
Mg787       O816   2.280       .  S
O789        C793   1.271       .  A
O790       Mg797   2.346       .  S
O792        C812   1.277       .  A
O792       Mg808   2.318       .  S
O794       Mg808   2.157       .  S
O794        C805   1.235       .  S
O796       Mg808   2.299       .  S
Mg797      O1084   2.148   1_554  S
Mg797       O813   2.265       .  S
O798       C1097   1.273       .  A
O798       Mg814   2.283       .  S
H799        C804   1.081       .  S
O800      Mg1120   2.125   1_554  S
O800        C803   1.236       .  S
H801        C803   1.081       .  S
H802        C805   1.081       .  S
O807      Mg1126   2.297   1_554  S
Mg808      O1112   2.131       .  S
C810        O815   1.270       .  A
C810        C911   1.483       .  S
O811       C1124   1.273       .  A
C812       O1123   1.271       .  A
C812        C841   1.489       .  S
Mg814      O1119   2.297       .  S
C817        C818   1.405       .  A
C817        C822   1.395       .  A
C817        F824   1.358       .  S
C818        C819   1.407       .  A
C819        C820   1.401       .  A
C819        F826   1.358       .  S
C820        C821   1.410       .  A
C820        F825   1.358       .  S
C821        C822   1.409       .  A
C822        F823   1.358       .  S
C827        C828   1.407       .  A
C827        C832   1.400       .  A
C827        F834   1.358       .  S
C828        C829   1.408       .  A
C829        C830   1.393       .  A
C829        F836   1.359       .  S
C830        C831   1.406       .  A
C830        F835   1.359       .  S
C831        C832   1.407       .  A
C832        F833   1.358       .  S
C837        C838   1.407       .  A
C837        C842   1.398       .  A
C837        F844   1.359       .  S
C838       C1151   1.407       .  A
C839       C1150   1.406       .  A
C839        C840   1.409       .  A
C839        F846   1.357       .  S
C840        C841   1.412       .  A
C840        F845   1.357       .  S
C841       C1154   1.409       .  A
C842       C1153   1.410       .  A
C842        F843   1.358       .  S
C847        C848   1.406       .  A
C847        C852   1.410       .  A
C847        F854   1.357       .  S
C848       C1161   1.405       .  A
C849       C1160   1.410       .  A
C849        C850   1.407       .  A
C849        F856   1.358       .  S
C850        C851   1.407       .  A
C850        F855   1.358       .  S
C851       C1164   1.413   1_554  A
C852       C1163   1.414       .  A
C852        F853   1.357       .  S
C857        C858   1.410       .  A
C857        C862   1.407       .  A
C857        F864   1.358       .  S
C858        C859   1.401       .  A
C859        C860   1.399       .  A
C859        F866   1.358       .  S
C860        C861   1.418       .  A
C860        F865   1.358       .  S
C861        C862   1.409       .  A
C862        F863   1.357       .  S
C867        C868   1.413       .  A
C867        C872   1.397       .  A
C867        F874   1.358       .  S
C868        C869   1.410       .  A
C869        C870   1.409       .  A
C869        F876   1.358       .  S
C870        C871   1.411       .  A
C870        F875   1.358       .  S
C871        C872   1.403       .  A
C872        F873   1.358       .  S
C877        C878   1.415       .  A
C877        C882   1.397       .  A
C877        F884   1.358       .  S
C878        C879   1.410       .  A
C879        C880   1.395       .  A
C879        F886   1.358       .  S
C880        C881   1.405       .  A
C880        F885   1.359       .  S
C881        C882   1.400       .  A
C882        F883   1.358       .  S
C887        C888   1.413       .  A
C887        C892   1.398       .  A
C887        F894   1.358       .  S
C888        C889   1.411       .  A
C889        C890   1.395       .  A
C889        F896   1.358       .  S
C890        C891   1.404       .  A
C890        F895   1.358       .  S
C891        C892   1.403       .  A
C892        F893   1.358       .  S
C897        C898   1.401   1_545  A
C897        C902   1.396       .  A
C897        F904   1.358       .  S
C898        C899   1.398       .  A
C899        C900   1.399       .  A
C899        F906   1.358       .  S
C900        C901   1.415       .  A
C900        F905   1.357       .  S
C901        C902   1.410   1_565  A
C902        F903   1.358       .  S
C907        C908   1.401       .  A
C907        C912   1.391       .  A
C907        F914   1.359       .  S
C908        C909   1.400       .  A
C909        C910   1.400       .  A
C909        F916   1.358       .  S
C910        C911   1.415       .  A
C910        F915   1.358       .  S
C911        C912   1.410       .  A
C912        F913   1.358       .  S
C917        C918   1.410       .  A
C917        C922   1.409       .  A
C917        F924   1.358       .  S
C918       C2167   1.415       .  A
C919       C2166   1.414   1_455  A
C919        C920   1.397       .  A
C919        F926   1.358       .  S
C920        C921   1.403   1_455  A
C920        F925   1.358       .  S
C921       C2170   1.413       .  A
C922       C2169   1.411       .  A
C922        F923   1.358       .  S
C927        C928   1.410       .  A
C927        C932   1.408       .  A
C927        F934   1.357       .  S
C928       C2177   1.413   1_455  A
C929       C2176   1.414       .  A
C929        C930   1.400       .  A
C929        F936   1.358       .  S
C930        C931   1.405       .  A
C930        F935   1.358       .  S
C931       C2180   1.411       .  A
C932       C2179   1.410       .  A
C932        F933   1.358       .  S
O937       Mg939   2.158       .  S
O937        C972   1.236       .  S
C938       O2199   1.234       .  S
C938        O975   1.269       .  A
C938        H977   1.081       .  S
Mg939      O2216   2.155       .  S
Mg939       O983   2.294       .  S
Mg939       O979   2.305       .  S
Mg939       O950   2.294       .  S
O940      Mg2230   2.154       .  S
O940       Mg965   2.117   1_655  S
O941       Mg965   2.305       .  S
C942        O944   1.268       .  A
C942        O956   1.272       .  A
C942       C1193   1.467       .  S
O943       C2219   1.268   1_455  A
O943       Mg945   2.292       .  S
O944       Mg976   2.239       .  S
Mg945       O951   2.144       .  S
Mg945       O959   2.252       .  S
Mg945       O947   2.277       .  S
C946        O984   1.273       .  A
C946       C1220   1.487       .  S
O947        C954   1.271       .  A
H948        C961   1.081       .  S
C949        O963   1.236       .  S
C949        H974   1.082       .  S
O950        C973   1.268       .  A
O951       Mg965   2.146       .  S
O951       C2186   1.234   1_455  S
O952       Mg982   2.292       .  S
C953        O966   1.278       .  A
C953       O2206   1.272       .  A
C953       C1230   1.493       .  S
C954        O981   1.266       .  A
C954       C1200   1.481       .  S
Mg955       O962   2.155       .  S
Mg955       O956   2.282       .  S
Mg955       O957   2.291       .  S
Mg955       O984   2.266       .  S
O957       C2209   1.267       .  A
O958       C2201   1.272   1_455  A
O958       Mg965   2.278       .  S
O959        C978   1.270       .  A
O960       C2228   1.275       .  A
O960       Mg976   2.301       .  S
C961       O2205   1.267   1_455  A
O962       Mg976   2.166       .  S
O962       C2221   1.234       .  S
O963       Mg982   2.162       .  S
O964       Mg976   2.299       .  S
Mg965       O981   2.233       .  S
O966       Mg982   2.319       .  S
H967        C972   1.081       .  S
O968      Mg2187   2.155       .  S
O968       Mg976   2.125       .  S
H969        C971   1.081       .  S
H970        C973   1.081       .  S
C971       O2191   1.268   1_545  A
C973       O2210   1.234   1_455  S
O975       Mg982   2.300       .  S
C978       C1213   1.484       .  S
O979        C980   1.276       .  A
C980       O2208   1.275   1_455  A
C980       C1240   1.498       .  S
Mg982      O2188   2.156       .  S
O985      Mg2235   2.175   1_455  S
O985       Mg993   2.158       .  S
O985       C1020   1.237       .  S
C986        O999   1.236       .  S
C986       O1023   1.272       .  A
C986       H1025   1.082       .  S
Mg987      O2233   2.175       .  S
Mg987      O1016   2.169       .  S
Mg987      O1031   2.314       .  S
Mg987      O1027   2.307       .  S
O988      Mg1030   2.174       .  S
O988       C1009   1.236       .  S
O989       C1020   1.273       .  A
O989      Mg1013   2.317       .  S
C990        O992   1.274       .  A
C990       O1004   1.274       .  A
C990       C1183   1.487       .  S
O991       C1019   1.271       .  A
O991      Mg2241   2.308       .  S
O992      Mg1024   2.299       .  S
Mg993       O999   2.180       .  S
Mg993      O2239   2.305   1_455  S
Mg993      O1007   2.308       .  S
Mg993       O995   2.323       .  S
C994       O2280   1.272       .  A
C994       O1000   1.276   1_655  A
C994       C1233   1.486       .  S
O995       C1002   1.277       .  A
H996       C1009   1.082       .  S
C997       O1011   1.235       .  S
C997       O1012   1.270       .  A
C997       H1022   1.081       .  S
O998       C1021   1.270       .  A
O999      Mg1013   2.151       .  S
O1000     Mg1030   2.307       .  S
C1001      O1006   1.277   1_554  A
C1001      C1160   1.484       .  S
C1002      O1029   1.273       .  A
C1002      C1170   1.487       .  S
Mg1003     O1010   2.166       .  S
Mg1003     O1011   2.153       .  S
Mg1003     O1004   2.294       .  S
Mg1003     O2253   2.304       .  S
Mg1003     O1032   2.291       .  S
O1005      C1009   1.271       .  A
O1005     Mg2251   2.305   1_455  S
O1006     Mg1013   2.328       .  S
O1007      C2274   1.276       .  A
O1008      C1028   1.275       .  A
O1008     Mg1024   2.299       .  S
O1010     Mg1024   2.160       .  S
O1010      C1021   1.235       .  S
O1011     Mg2278   2.157       .  S
O1012     Mg1024   2.307       .  S
Mg1013     O1029   2.288       .  S
O1014     Mg1030   2.299       .  S
H1015      C1020   1.081       .  S
O1016      C1019   1.236       .  S
H1017      C1019   1.082       .  S
H1018      C1021   1.082       .  S
C1026      O2255   1.275       .  A
C1026      O1031   1.276       .  A
C1026      C1243   1.488       .  S
C1028      C1150   1.483       .  S
Mg1030     O2259   2.160   1_455  S
O1032      C2242   1.273       .  A
O1033     Mg1035   2.168       .  S
O1033     Mg1041   2.169       .  S
O1033      C1068   1.236       .  S
C1034      O1047   1.234       .  S
C1034      O1071   1.268       .  A
C1034      H1073   1.083       .  S
Mg1035     O1064   2.167       .  S
Mg1035     O1079   2.300       .  S
Mg1035     O1075   2.316       .  S
Mg1035     O1046   2.289       .  S
O1036     Mg1078   2.155       .  S
O1036     Mg1061   2.118       .  S
O1036      C1057   1.234       .  S
O1037      C1068   1.271       .  A
O1037     Mg1061   2.302       .  S
C1038      O1040   1.270       .  A
C1038      O1052   1.273       .  A
C1038      C1133   1.481       .  S
O1039      C1067   1.268       .  A
O1039     Mg1041   2.291       .  S
O1040     Mg1072   2.259       .  S
Mg1041     O1047   2.140       .  S
Mg1041     O1055   2.230       .  S
Mg1041     O1043   2.291       .  S
C1042      O1080   1.268       .  A
C1042      O1048   1.275       .  A
C1042      C1203   1.466       .  S
O1043      C1050   1.273       .  A
H1044      C1057   1.082       .  S
C1045      O1059   1.237       .  S
C1045      O1060   1.271       .  A
C1045      H1070   1.081       .  S
O1046      C1069   1.266       .  A
O1047     Mg1061   2.154       .  S
O1048     Mg1078   2.290       .  S
C1049      O1062   1.278       .  A
C1049      O1054   1.272       .  A
C1049      C1173   1.498       .  S
C1050      O1077   1.267       .  A
C1050      C1140   1.478       .  S
Mg1051     O1058   2.128       .  S
Mg1051     O1059   2.173       .  S
Mg1051     O1052   2.287       .  S
Mg1051     O1053   2.287       .  S
Mg1051     O1080   2.225       .  S
O1053      C1057   1.267       .  A
O1054     Mg1061   2.283       .  S
O1055      C1074   1.269       .  A
O1056      C1076   1.274       .  A
O1056     Mg1072   2.284       .  S
O1058     Mg1072   2.147       .  S
O1058      C1069   1.233       .  S
O1059     Mg1078   2.166       .  S
O1060     Mg1072   2.304       .  S
Mg1061     O1077   2.240       .  S
O1062     Mg1078   2.322       .  S
H1063      C1068   1.081       .  S
O1064     Mg1072   2.127       .  S
O1064      C1067   1.234       .  S
H1065      C1067   1.081       .  S
H1066      C1069   1.083       .  S
O1071     Mg1078   2.299       .  S
C1074      O1079   1.276       .  A
C1074      C1190   1.484       .  S
O1075      C1076   1.278       .  A
C1076      C1180   1.493       .  S
O1081     Mg1089   2.161       .  S
O1081      C1116   1.235       .  S
C1082      O1095   1.233       .  S
C1082      O1119   1.268       .  A
C1082      H1121   1.081       .  S
Mg1083     O1112   2.154       .  S
Mg1083     O1127   2.291       .  S
Mg1083     O1123   2.270       .  S
O1084     Mg1126   2.158       .  S
O1084      C1105   1.236       .  S
O1085      C1116   1.270       .  A
O1085     Mg1109   2.307       .  S
C1086      O1088   1.270       .  A
C1086      O1100   1.275       .  A
C1086      C1143   1.477       .  S
O1087      C1115   1.270       .  A
O1088     Mg1120   2.241       .  S
Mg1089     O1095   2.151       .  S
Mg1089     O1103   2.242       .  S
Mg1089     O1091   2.287       .  S
C1090      O1096   1.268       .  A
C1090      C1210   1.463       .  S
O1091      C1098   1.271       .  A
H1092      C1105   1.081       .  S
C1093      O1107   1.235       .  S
C1093      O1108   1.271       .  A
C1093      H1118   1.081       .  S
O1094      C1117   1.268       .  A
O1095     Mg1109   2.147       .  S
O1096     Mg1126   2.271       .  S
C1097      O1102   1.278       .  A
C1097      C1163   1.498       .  S
C1098      O1125   1.273       .  A
C1098      C1130   1.477       .  S
Mg1099     O1106   2.160       .  S
Mg1099     O1107   2.144       .  S
Mg1099     O1100   2.309       .  S
Mg1099     O1128   2.269       .  S
O1101      C1105   1.271       .  A
O1102     Mg1109   2.326       .  S
O1104      C1124   1.278       .  A
O1104     Mg1120   2.326       .  S
O1106     Mg1120   2.158       .  S
O1106      C1117   1.234       .  S
O1108     Mg1120   2.310       .  S
Mg1109     O1125   2.264       .  S
O1110     Mg1126   2.255       .  S
H1111      C1116   1.081       .  S
O1112      C1115   1.236       .  S
H1113      C1115   1.081       .  S
H1114      C1117   1.081       .  S
C1122      O1127   1.270       .  A
C1122      C1223   1.471       .  S
C1124      C1153   1.496       .  S
C1129      C1130   1.405       .  A
C1129      C1134   1.394       .  A
C1129      F1136   1.359       .  S
C1130      C1131   1.408       .  A
C1131      C1132   1.402       .  A
C1131      F1138   1.358       .  S
C1132      C1133   1.408       .  A
C1132      F1137   1.358       .  S
C1133      C1134   1.410       .  A
C1134      F1135   1.358       .  S
C1139      C1140   1.408       .  A
C1139      C1144   1.401       .  A
C1139      F1146   1.358       .  S
C1140      C1141   1.407       .  A
C1141      C1142   1.393       .  A
C1141      F1148   1.359       .  S
C1142      C1143   1.407       .  A
C1142      F1147   1.359       .  S
C1143      C1144   1.407       .  A
C1144      F1145   1.358       .  S
C1149      C1150   1.406       .  A
C1149      C1154   1.396       .  A
C1149      F1156   1.359       .  S
C1151      C1152   1.411       .  A
C1151      F1158   1.357       .  S
C1152      C1153   1.414       .  A
C1152      F1157   1.357       .  S
C1154      F1155   1.358       .  S
C1159      C1160   1.402   1_556  A
C1159      C1164   1.401       .  A
C1159      F1166   1.358       .  S
C1161      C1162   1.400       .  A
C1161      F1168   1.358       .  S
C1162      C1163   1.412       .  A
C1162      F1167   1.358       .  S
C1164      F1165   1.358       .  S
C1169      C1170   1.411       .  A
C1169      C1174   1.408       .  A
C1169      F1176   1.358       .  S
C1170      C1171   1.401       .  A
C1171      C1172   1.399       .  A
C1171      F1178   1.358       .  S
C1172      C1173   1.417       .  A
C1172      F1177   1.358       .  S
C1173      C1174   1.410       .  A
C1174      F1175   1.358       .  S
C1179      C1180   1.413       .  A
C1179      C1184   1.396       .  A
C1179      F1186   1.358       .  S
C1180      C1181   1.409       .  A
C1181      C1182   1.409       .  A
C1181      F1188   1.357       .  S
C1182      C1183   1.411       .  A
C1182      F1187   1.358       .  S
C1183      C1184   1.404       .  A
C1184      F1185   1.359       .  S
C1189      C1190   1.415       .  A
C1189      C1194   1.397       .  A
C1189      F1196   1.358       .  S
C1190      C1191   1.410       .  A
C1191      C1192   1.394       .  A
C1191      F1198   1.358       .  S
C1192      C1193   1.404       .  A
C1192      F1197   1.358       .  S
C1193      C1194   1.401       .  A
C1194      F1195   1.358       .  S
C1199      C1200   1.412       .  A
C1199      C1204   1.397       .  A
C1199      F1206   1.358       .  S
C1200      C1201   1.411       .  A
C1201      C1202   1.390       .  A
C1201      F1208   1.357       .  S
C1202      C1203   1.402       .  A
C1202      F1207   1.359       .  S
C1203      C1204   1.404       .  A
C1204      F1205   1.358       .  S
C1209      C1210   1.402   1_545  A
C1209      C1214   1.396       .  A
C1209      F1216   1.358       .  S
C1210      C1211   1.398       .  A
C1211      C1212   1.400       .  A
C1211      F1218   1.358       .  S
C1212      C1213   1.414       .  A
C1212      F1217   1.357       .  S
C1213      C1214   1.409   1_565  A
C1214      F1215   1.358       .  S
C1219      C1220   1.412       .  A
C1219      C1224   1.393       .  A
C1219      F1226   1.358       .  S
C1220      C1221   1.413       .  A
C1221      C1222   1.403       .  A
C1221      F1228   1.358       .  S
C1222      C1223   1.404       .  A
C1222      F1227   1.358       .  S
C1223      C1224   1.401       .  A
C1224      F1225   1.359       .  S
C1229      C1230   1.409       .  A
C1229      C1234   1.410       .  A
C1229      F1236   1.358       .  S
C1230      C2479   1.413       .  A
C1231      C2478   1.413   1_455  A
C1231      C1232   1.395       .  A
C1231      F1238   1.358       .  S
C1232      C1233   1.403   1_455  A
C1232      F1237   1.358       .  S
C1233      C2482   1.412       .  A
C1234      C2481   1.412       .  A
C1234      F1235   1.358       .  S
C1239      C1240   1.411       .  A
C1239      C1244   1.409       .  A
C1239      F1246   1.358       .  S
C1240      C2489   1.414   1_455  A
C1241      C2488   1.415       .  A
C1241      C1242   1.400       .  A
C1241      F1248   1.358       .  S
C1242      C1243   1.403       .  A
C1242      F1247   1.358       .  S
C1243      C2492   1.410       .  A
C1244      C2491   1.409       .  A
C1244      F1245   1.358       .  S
O1249     Mg1251   2.158   1_565  S
O1249     Mg1881   2.166       .  S
O1249      C1284   1.236   1_565  S
C1250      O1287   1.269       .  A
C1250      H1289   1.081       .  S
Mg1251     O1295   2.307       .  S
Mg1251     O1291   2.306       .  S
Mg1251     O1262   2.298       .  S
O1252     Mg1277   2.112       .  S
O1252      C1897   1.233       .  S
O1253      C1908   1.271       .  A
O1253     Mg1277   2.301       .  S
C1254      O1256   1.268       .  A
C1254      O1268   1.273       .  A
C1254      C1505   1.469       .  S
O1255     Mg1257   2.287       .  S
O1256     Mg1288   2.242       .  S
Mg1257     O1873   2.176       .  S
Mg1257     O1263   2.147       .  S
Mg1257     O1271   2.254       .  S
Mg1257     O1259   2.283       .  S
C1258      O1296   1.271       .  A
C1258      O1888   1.275   1_545  A
C1258      C1532   1.462       .  S
O1259      C1266   1.272       .  A
H1260      C1273   1.081       .  S
C1261      O1275   1.236       .  S
C1261      O1900   1.270       .  A
C1261      H1286   1.082       .  S
O1262      C1285   1.269       .  A
O1263     Mg1277   2.153       .  S
O1264      C1882   1.274       .  A
O1264     Mg1294   2.283       .  S
C1265      O1278   1.277       .  A
C1265      C1542   1.497       .  S
C1266      O1293   1.265       .  A
C1266      C1512   1.481       .  S
Mg1267     O1274   2.146       .  S
Mg1267     O1899   2.183       .  S
Mg1267     O1268   2.287       .  S
Mg1267     O1269   2.285       .  S
Mg1267     O1296   2.251       .  S
O1270     Mg1277   2.279       .  S
O1271      C1290   1.270       .  A
O1272     Mg1288   2.290       .  S
C1273      O1876   1.234       .  S
O1274     Mg1288   2.161       .  S
O1275     Mg1891   2.172       .  S
O1275     Mg1294   2.156       .  S
O1276      C1885   1.270   1_545  A
O1276     Mg1288   2.296       .  S
Mg1277     O1293   2.221       .  S
O1278     Mg1294   2.314       .  S
H1279      C1284   1.081       .  S
O1280     Mg1288   2.126   1_455  S
O1280      C1907   1.234   1_455  S
H1281      C1283   1.081       .  S
H1282      C1285   1.081       .  S
C1283      O1904   1.235   1_655  S
C1284      O1877   1.270   1_545  A
O1287     Mg1294   2.298       .  S
C1290      O1919   1.276       .  A
C1290      C1525   1.471       .  S
O1291      C1292   1.277       .  A
C1292      C1552   1.497       .  S
O1295      C1914   1.277   1_545  A
O1297     Mg1305   2.149       .  S
O1297      C1332   1.235       .  S
C1298      O1311   1.236       .  S
C1298      O1335   1.272       .  A
C1298      H1337   1.082       .  S
Mg1299     O1328   2.171       .  S
Mg1299     O1343   2.311       .  S
Mg1299     O1339   2.291       .  S
Mg1299     O1622   2.301       .  S
O1300     Mg1342   2.154       .  S
O1300     Mg1637   2.167   1_554  S
O1300      C1321   1.237       .  S
O1301      C1332   1.271       .  A
O1301     Mg1325   2.311       .  S
C1302      O1304   1.275       .  A
C1302      O1316   1.277       .  A
C1302      C1495   1.489       .  S
O1303      C1331   1.272       .  A
O1304     Mg1336   2.300       .  S
Mg1305     O1311   2.170       .  S
Mg1305     O1319   2.300       .  S
Mg1305     O1307   2.318       .  S
C1306      O1312   1.276       .  A
C1306      C1545   1.487       .  S
O1307      C1314   1.276       .  A
H1308      C1321   1.082       .  S
C1309      O1323   1.234       .  S
C1309      O1324   1.270       .  A
C1309      H1334   1.081       .  S
O1310      C1333   1.271       .  A
O1310     Mg1611   2.302   1_554  S
O1311     Mg1325   2.152       .  S
O1312     Mg1342   2.309       .  S
C1313      O1638   1.271       .  A
C1313      O1318   1.275       .  A
C1313      C1472   1.477       .  S
C1314      O1341   1.272       .  A
C1314      C1482   1.483       .  S
Mg1315     O1322   2.166       .  S
Mg1315     O1323   2.148       .  S
Mg1315     O1316   2.314       .  S
Mg1315     O1344   2.294       .  S
O1317      C1321   1.273       .  A
O1318     Mg1325   2.312       .  S
O1320      C1340   1.275   1_554  A
O1320     Mg1336   2.300       .  S
O1322     Mg1336   2.163       .  S
O1322      C1333   1.236       .  S
O1324     Mg1336   2.307       .  S
Mg1325     O1612   2.171       .  S
Mg1325     O1341   2.284       .  S
O1326      C1625   1.273       .  A
O1326     Mg1342   2.298       .  S
H1327      C1332   1.081       .  S
O1328     Mg1648   2.167       .  S
O1328      C1331   1.236       .  S
H1329      C1331   1.082       .  S
H1330      C1333   1.082       .  S
O1335     Mg1654   2.312       .  S
Mg1336     O1640   2.167   1_554  S
C1338      O1343   1.276   1_455  A
C1338      C1555   1.486       .  S
O1339      C1652   1.273       .  A
C1340      O1651   1.272       .  A
C1340      C1462   1.478       .  S
Mg1342     O1647   2.312   1_554  S
O1345     Mg1347   2.169       .  S
O1345     Mg1353   2.174       .  S
O1345      C1380   1.236       .  S
C1346      O1359   1.234       .  S
C1346      O1383   1.268       .  A
C1346      H1385   1.083       .  S
Mg1347     O1376   2.159       .  S
Mg1347     O1391   2.304       .  S
Mg1347     O1387   2.325       .  S
Mg1347     O1358   2.294       .  S
O1348     Mg1390   2.157       .  S
O1348     Mg1373   2.118       .  S
O1348      C1369   1.234       .  S
O1349      C1380   1.271       .  A
O1349     Mg1373   2.302       .  S
C1350      O1352   1.268       .  A
C1350      O1364   1.273       .  A
C1350      C1445   1.479       .  S
O1351      C1379   1.267       .  A
O1351     Mg1353   2.287       .  S
O1352     Mg1384   2.241       .  S
Mg1353     O1359   2.141       .  S
Mg1353     O1367   2.235       .  S
Mg1353     O1355   2.290       .  S
C1354      O1392   1.269       .  A
C1354      O1360   1.275       .  A
C1354      C1515   1.467       .  S
O1355      C1362   1.273       .  A
H1356      C1369   1.082       .  S
C1357      O1371   1.237       .  S
C1357      O1372   1.271       .  A
C1357      H1382   1.081       .  S
O1358      C1381   1.267       .  A
O1359     Mg1373   2.154       .  S
O1360     Mg1390   2.292       .  S
C1361      O1374   1.279       .  A
C1361      O1366   1.271       .  A
C1361      C1485   1.498       .  S
C1362      O1389   1.266       .  A
C1362      C1452   1.477       .  S
Mg1363     O1370   2.140       .  S
Mg1363     O1371   2.173       .  S
Mg1363     O1364   2.293       .  S
Mg1363     O1365   2.289       .  S
Mg1363     O1392   2.233       .  S
O1365      C1369   1.267       .  A
O1366     Mg1373   2.276       .  S
O1367      C1386   1.270       .  A
O1368      C1388   1.274       .  A
O1368     Mg1384   2.290       .  S
O1370     Mg1384   2.152       .  S
O1370      C1381   1.234       .  S
O1371     Mg1390   2.166       .  S
O1372     Mg1384   2.303       .  S
Mg1373     O1389   2.237       .  S
O1374     Mg1390   2.324       .  S
H1375      C1380   1.081       .  S
O1376     Mg1384   2.118       .  S
O1376      C1379   1.233       .  S
H1377      C1379   1.081       .  S
H1378      C1381   1.083       .  S
O1383     Mg1390   2.296       .  S
C1386      O1391   1.277       .  A
C1386      C1502   1.485       .  S
O1387      C1388   1.279       .  A
C1388      C1492   1.499       .  S
O1393     Mg2019   2.161       .  S
O1393     Mg1401   2.157       .  S
O1393      C1428   1.235       .  S
C1394      O1407   1.234       .  S
C1394      O1431   1.269       .  A
C1394      H1433   1.081       .  S
Mg1395     O2017   2.159   1_545  S
Mg1395     O1424   2.159       .  S
Mg1395     O1439   2.278       .  S
Mg1395     O1435   2.268       .  S
Mg1395     O1718   2.295   1_554  S
O1396     Mg1438   2.158       .  S
O1396     Mg1733   2.146       .  S
O1396      C1417   1.236       .  S
O1397      C1428   1.271       .  A
O1397     Mg1421   2.311       .  S
C1398      O1400   1.270       .  A
C1398      O1412   1.275       .  A
C1398      C1455   1.477       .  S
O1399      C1427   1.269       .  A
O1399     Mg2025   2.292   1_545  S
O1400     Mg1432   2.241       .  S
Mg1401     O1407   2.157       .  S
Mg1401     O2023   2.291       .  S
Mg1401     O1415   2.256       .  S
Mg1401     O1403   2.293       .  S
C1402      O2064   1.271       .  A
C1402      O1408   1.273       .  A
C1402      C1522   1.490       .  S
O1403      C1410   1.272       .  A
H1404      C1417   1.081       .  S
C1405      O1419   1.235       .  S
C1405      O1420   1.271       .  A
C1405      H1430   1.081       .  S
O1406      C1429   1.269       .  A
O1406     Mg1707   2.300       .  S
O1407     Mg1421   2.148       .  S
O1408     Mg1438   2.298       .  S
C1409      O1734   1.270   1_554  A
C1409      O1414   1.278       .  A
C1409      C1475   1.485       .  S
C1410      O1437   1.272       .  A
C1410      C1442   1.476       .  S
Mg1411     O1418   2.159       .  S
Mg1411     O1419   2.146       .  S
Mg1411     O1412   2.311       .  S
Mg1411     O2037   2.310   1_545  S
Mg1411     O1440   2.268       .  S
O1413      C1417   1.270       .  A
O1413     Mg2035   2.298       .  S
O1414     Mg1421   2.351       .  S
O1415      C2058   1.269       .  A
O1416      C1436   1.278       .  A
O1416     Mg1432   2.322       .  S
O1418     Mg1432   2.156       .  S
O1418      C1429   1.234       .  S
O1419     Mg2062   2.167   1_545  S
O1420     Mg1432   2.309       .  S
Mg1421     O1708   2.148   1_554  S
Mg1421     O1437   2.257       .  S
O1422      C1721   1.271       .  A
O1422     Mg1438   2.254       .  S
H1423      C1428   1.081       .  S
O1424     Mg1744   2.129   1_554  S
O1424      C1427   1.235       .  S
H1425      C1427   1.081       .  S
H1426      C1429   1.081       .  S
O1431     Mg1750   2.301   1_554  S
Mg1432     O1736   2.125       .  S
C1434      O2039   1.271   1_545  A
C1434      O1439   1.270       .  A
C1434      C1535   1.487       .  S
O1435      C1748   1.272   1_554  A
C1436      O1747   1.272       .  A
C1436      C1465   1.495       .  S
Mg1438     O2043   2.153       .  S
Mg1438     O1743   2.300       .  S
O1440      C2026   1.271   1_545  A
C1441      C1442   1.405       .  A
C1441      C1446   1.394       .  A
C1441      F1448   1.358       .  S
C1442      C1443   1.407       .  A
C1443      C1444   1.401       .  A
C1443      F1450   1.358       .  S
C1444      C1445   1.409       .  A
C1444      F1449   1.358       .  S
C1445      C1446   1.408       .  A
C1446      F1447   1.358       .  S
C1451      C1452   1.408       .  A
C1451      C1456   1.401       .  A
C1451      F1458   1.358       .  S
C1452      C1453   1.407       .  A
C1453      C1454   1.393       .  A
C1453      F1460   1.359       .  S
C1454      C1455   1.407       .  A
C1454      F1459   1.359       .  S
C1455      C1456   1.407       .  A
C1456      F1457   1.358       .  S
C1461      C1462   1.404       .  A
C1461      C1466   1.398       .  A
C1461      F1468   1.359       .  S
C1462      C1775   1.402       .  A
C1463      C1774   1.403       .  A
C1463      C1464   1.407       .  A
C1463      F1470   1.357       .  S
C1464      C1465   1.414       .  A
C1464      F1469   1.357       .  S
C1465      C1778   1.411       .  A
C1466      C1777   1.412       .  A
C1466      F1467   1.358       .  S
C1471      C1472   1.399       .  A
C1471      C1476   1.399       .  A
C1471      F1478   1.358       .  S
C1472      C1785   1.407       .  A
C1473      C1784   1.411       .  A
C1473      C1474   1.409       .  A
C1473      F1480   1.358       .  S
C1474      C1475   1.406       .  A
C1474      F1479   1.357       .  S
C1475      C1788   1.408   1_554  A
C1476      C1787   1.414       .  A
C1476      F1477   1.357       .  S
C1481      C1482   1.409       .  A
C1481      C1486   1.407       .  A
C1481      F1488   1.358       .  S
C1482      C1483   1.400       .  A
C1483      C1484   1.399       .  A
C1483      F1490   1.358       .  S
C1484      C1485   1.418       .  A
C1484      F1489   1.358       .  S
C1485      C1486   1.409       .  A
C1486      F1487   1.357       .  S
C1491      C1492   1.415       .  A
C1491      C1496   1.399       .  A
C1491      F1498   1.358       .  S
C1492      C1493   1.410       .  A
C1493      C1494   1.410       .  A
C1493      F1500   1.357       .  S
C1494      C1495   1.411       .  A
C1494      F1499   1.358       .  S
C1495      C1496   1.403       .  A
C1496      F1497   1.358       .  S
C1501      C1502   1.415       .  A
C1501      C1506   1.397       .  A
C1501      F1508   1.358       .  S
C1502      C1503   1.410       .  A
C1503      C1504   1.395       .  A
C1503      F1510   1.358       .  S
C1504      C1505   1.405       .  A
C1504      F1509   1.358       .  S
C1505      C1506   1.401       .  A
C1506      F1507   1.358       .  S
C1511      C1512   1.414       .  A
C1511      C1516   1.396       .  A
C1511      F1518   1.358       .  S
C1512      C1513   1.410       .  A
C1513      C1514   1.392       .  A
C1513      F1520   1.358       .  S
C1514      C1515   1.403       .  A
C1514      F1519   1.358       .  S
C1515      C1516   1.403       .  A
C1516      F1517   1.358       .  S
C1521      C1522   1.411       .  A
C1521      C1526   1.396       .  A
C1521      F1528   1.358       .  S
C1522      C1523   1.415       .  A
C1523      C1524   1.402       .  A
C1523      F1530   1.356       .  S
C1524      C1525   1.401       .  A
C1524      F1529   1.358       .  S
C1525      C1526   1.402       .  A
C1526      F1527   1.359       .  S
C1531      C1532   1.400   1_565  A
C1531      C1536   1.392       .  A
C1531      F1538   1.359       .  S
C1532      C1533   1.399       .  A
C1533      C1534   1.401       .  A
C1533      F1540   1.358       .  S
C1534      C1535   1.417       .  A
C1534      F1539   1.358       .  S
C1535      C1536   1.410   1_545  A
C1536      F1537   1.358       .  S
C1541      C1542   1.410       .  A
C1541      C1546   1.408       .  A
C1541      F1548   1.357       .  S
C1543      C1544   1.397       .  A
C1543      F1550   1.358       .  S
C1544      C1545   1.403       .  A
C1544      F1549   1.358       .  S
C1546      F1547   1.358       .  S
C1551      C1552   1.411       .  A
C1551      C1556   1.408       .  A
C1551      F1558   1.358       .  S
C1553      C1554   1.398       .  A
C1553      F1560   1.358       .  S
C1554      C1555   1.403   1_655  A
C1554      F1559   1.358       .  S
C1556      F1557   1.358       .  S
O1561     Mg1563   2.156   1_565  S
O1561     Mg2193   2.163       .  S
O1561      C1596   1.237   1_565  S
C1562      O1599   1.270       .  A
C1562      H1601   1.081       .  S
Mg1563     O1607   2.299       .  S
Mg1563     O1603   2.299       .  S
Mg1563     O1574   2.296       .  S
O1564     Mg1589   2.122       .  S
O1564      C2209   1.234       .  S
O1565      C2220   1.270       .  A
O1565     Mg1589   2.301       .  S
C1566      O1568   1.269       .  A
C1566      O1580   1.273       .  A
C1566      C1817   1.472       .  S
O1567     Mg1569   2.291       .  S
O1568     Mg1600   2.247       .  S
Mg1569     O2185   2.166       .  S
Mg1569     O1575   2.150       .  S
Mg1569     O1583   2.256       .  S
Mg1569     O1571   2.291       .  S
C1570      O1608   1.271       .  A
C1570      O2200   1.275   1_545  A
C1570      C1844   1.463       .  S
O1571      C1578   1.273       .  A
H1572      C1585   1.081       .  S
C1573      O1587   1.236       .  S
C1573      O2212   1.270       .  A
C1573      H1598   1.082       .  S
O1574      C1597   1.268       .  A
O1575     Mg1589   2.155       .  S
O1576      C2194   1.275       .  A
O1576     Mg1606   2.290       .  S
C1577      O1590   1.276       .  A
C1577      C1854   1.494       .  S
C1578      O1605   1.267       .  A
C1578      C1824   1.485       .  S
Mg1579     O1586   2.145       .  S
Mg1579     O2211   2.184   1_545  S
Mg1579     O1580   2.287       .  S
Mg1579     O1581   2.282       .  S
Mg1579     O1608   2.250       .  S
O1582     Mg1589   2.284       .  S
O1583      C1602   1.271       .  A
O1584     Mg1600   2.290       .  S
C1585      O2188   1.233       .  S
O1586     Mg1600   2.161       .  S
O1587     Mg2203   2.171       .  S
O1587     Mg1606   2.159       .  S
O1588      C2197   1.270   1_545  A
O1588     Mg1600   2.296       .  S
Mg1589     O1605   2.235       .  S
O1590     Mg1606   2.313       .  S
H1591      C1596   1.081       .  S
O1592     Mg1600   2.131   1_455  S
O1592      C2219   1.234   1_445  S
H1593      C1595   1.081       .  S
H1594      C1597   1.081       .  S
C1595      O2216   1.234   1_655  S
C1596      O2189   1.272   1_545  A
O1599     Mg1606   2.302       .  S
C1602      O2231   1.276       .  A
C1602      C1837   1.488       .  S
O1603      C1604   1.276       .  A
C1604      C1864   1.494       .  S
O1607      C2226   1.275   1_545  A
O1609     Mg1617   2.152       .  S
O1609      C1644   1.236       .  S
C1610      O1623   1.235       .  S
C1610      O1647   1.272       .  A
C1610      H1649   1.082       .  S
Mg1611     O1640   2.171       .  S
Mg1611     O1655   2.314       .  S
Mg1611     O1651   2.282       .  S
O1612     Mg1654   2.156       .  S
O1612      C1633   1.236       .  S
O1613      C1644   1.271       .  A
O1613     Mg1637   2.311       .  S
C1614      O1616   1.274       .  A
C1614      O1628   1.276       .  A
C1614      C1807   1.486       .  S
O1615      C1643   1.271       .  A
O1616     Mg1648   2.295       .  S
Mg1617     O1623   2.166       .  S
Mg1617     O1631   2.285       .  S
Mg1617     O1619   2.315       .  S
C1618      O1624   1.275       .  A
C1618      C1857   1.489       .  S
O1619      C1626   1.275       .  A
H1620      C1633   1.082       .  S
C1621      O1635   1.234       .  S
C1621      O1636   1.269       .  A
C1621      H1646   1.081       .  S
O1622      C1645   1.270       .  A
O1623     Mg1637   2.149       .  S
O1624     Mg1654   2.307       .  S
C1625      O1630   1.274   1_554  A
C1625      C1784   1.487       .  S
C1626      O1653   1.271       .  A
C1626      C1794   1.481       .  S
Mg1627     O1634   2.166       .  S
Mg1627     O1635   2.151       .  S
Mg1627     O1628   2.306       .  S
Mg1627     O1656   2.298       .  S
O1629      C1633   1.273       .  A
O1630     Mg1637   2.303       .  S
O1632      C1652   1.274       .  A
O1632     Mg1648   2.296       .  S
O1634     Mg1648   2.166       .  S
O1634      C1645   1.235       .  S
O1636     Mg1648   2.304       .  S
Mg1637     O1653   2.277       .  S
O1638     Mg1654   2.280       .  S
H1639      C1644   1.081       .  S
O1640      C1643   1.236       .  S
H1641      C1643   1.082       .  S
H1642      C1645   1.082       .  S
C1650      O1655   1.276   1_455  A
C1650      C1867   1.483       .  S
C1652      C1774   1.481       .  S
O1657     Mg1659   2.161       .  S
O1657     Mg1665   2.170       .  S
O1657      C1692   1.236       .  S
C1658      O1671   1.233       .  S
C1658      O1695   1.267       .  A
C1658      H1697   1.083       .  S
Mg1659     O1688   2.161       .  S
Mg1659     O1703   2.314       .  S
Mg1659     O1699   2.319       .  S
Mg1659     O1670   2.298       .  S
O1660     Mg1702   2.159       .  S
O1660     Mg1685   2.122       .  S
O1660      C1681   1.234       .  S
O1661      C1692   1.270       .  A
O1661     Mg1685   2.299       .  S
C1662      O1664   1.267       .  A
C1662      O1676   1.273       .  A
C1662      C1757   1.481       .  S
O1663      C1691   1.267       .  A
O1663     Mg1665   2.287       .  S
O1664     Mg1696   2.243       .  S
Mg1665     O1671   2.143       .  S
Mg1665     O1679   2.237       .  S
Mg1665     O1667   2.284       .  S
C1666      O1704   1.270       .  A
C1666      O1672   1.275       .  A
C1666      C1827   1.469       .  S
O1667      C1674   1.272       .  A
H1668      C1681   1.082       .  S
C1669      O1683   1.237       .  S
C1669      O1684   1.272       .  A
C1669      H1694   1.081       .  S
O1670      C1693   1.268       .  A
O1671     Mg1685   2.156       .  S
O1672     Mg1702   2.295       .  S
C1673      O1686   1.278       .  A
C1673      O1678   1.272       .  A
C1673      C1797   1.499       .  S
C1674      O1701   1.267       .  A
C1674      C1764   1.475       .  S
Mg1675     O1682   2.145       .  S
Mg1675     O1683   2.174       .  S
Mg1675     O1676   2.292       .  S
Mg1675     O1677   2.288       .  S
Mg1675     O1704   2.242       .  S
O1677      C1681   1.267       .  A
O1678     Mg1685   2.279       .  S
O1679      C1698   1.270       .  A
O1680      C1700   1.273       .  A
O1680     Mg1696   2.284       .  S
O1682     Mg1696   2.149       .  S
O1682      C1693   1.234       .  S
O1683     Mg1702   2.167       .  S
O1684     Mg1696   2.307       .  S
Mg1685     O1701   2.239       .  S
O1686     Mg1702   2.319       .  S
H1687      C1692   1.081       .  S
O1688     Mg1696   2.121       .  S
O1688      C1691   1.233       .  S
H1689      C1691   1.081       .  S
H1690      C1693   1.083       .  S
O1695     Mg1702   2.296       .  S
C1698      O1703   1.278       .  A
C1698      C1814   1.488       .  S
O1699      C1700   1.279       .  A
C1700      C1804   1.495       .  S
O1705     Mg2331   2.158       .  S
O1705     Mg1713   2.146       .  S
O1705      C1740   1.235       .  S
C1706      O1719   1.234       .  S
C1706      O1743   1.268       .  A
C1706      H1745   1.081       .  S
Mg1707     O2329   2.155   1_545  S
Mg1707     O1736   2.159       .  S
Mg1707     O1751   2.289       .  S
Mg1707     O1747   2.273       .  S
O1708     Mg1750   2.146       .  S
O1708      C1729   1.237       .  S
O1709      C1740   1.271       .  A
O1709     Mg1733   2.312       .  S
C1710      O1712   1.271       .  A
C1710      O1724   1.274       .  A
C1710      C1767   1.477       .  S
O1711      C1739   1.268       .  A
O1711     Mg2337   2.287   1_545  S
O1712     Mg1744   2.246       .  S
Mg1713     O1719   2.159       .  S
Mg1713     O2335   2.299       .  S
Mg1713     O1727   2.259       .  S
Mg1713     O1715   2.293       .  S
C1714      O2376   1.270       .  A
C1714      O1720   1.269       .  A
C1714      C1834   1.468       .  S
O1715      C1722   1.272       .  A
H1716      C1729   1.081       .  S
C1717      O1731   1.235       .  S
C1717      O1732   1.270       .  A
C1717      H1742   1.081       .  S
O1718      C1741   1.268       .  A
O1719     Mg1733   2.151       .  S
O1720     Mg1750   2.286       .  S
C1721      O1726   1.280       .  A
C1721      C1787   1.492       .  S
C1722      O1749   1.273       .  A
C1722      C1754   1.474       .  S
Mg1723     O1730   2.150       .  S
Mg1723     O1731   2.157       .  S
Mg1723     O1724   2.303       .  S
Mg1723     O2349   2.303   1_545  S
Mg1723     O1752   2.267       .  S
O1725      C1729   1.273       .  A
O1725     Mg2347   2.314       .  S
O1726     Mg1733   2.345       .  S
O1727      C2370   1.270       .  A
O1728      C1748   1.278       .  A
O1728     Mg1744   2.320       .  S
O1730     Mg1744   2.153       .  S
O1730      C1741   1.234       .  S
O1731     Mg2374   2.156   1_545  S
O1732     Mg1744   2.304       .  S
Mg1733     O1749   2.261       .  S
O1734     Mg1750   2.253       .  S
H1735      C1740   1.081       .  S
O1736      C1739   1.235       .  S
H1737      C1739   1.081       .  S
H1738      C1741   1.081       .  S
C1746      O2351   1.269   1_545  A
C1746      O1751   1.272       .  A
C1746      C1847   1.485       .  S
C1748      C1777   1.495       .  S
Mg1750     O2355   2.162       .  S
O1752      C2338   1.270   1_545  A
C1753      C1754   1.404       .  A
C1753      C1758   1.394       .  A
C1753      F1760   1.358       .  S
C1754      C1755   1.406       .  A
C1755      C1756   1.401       .  A
C1755      F1762   1.358       .  S
C1756      C1757   1.410       .  A
C1756      F1761   1.358       .  S
C1757      C1758   1.409       .  A
C1758      F1759   1.358       .  S
C1763      C1764   1.407       .  A
C1763      C1768   1.401       .  A
C1763      F1770   1.358       .  S
C1764      C1765   1.407       .  A
C1765      C1766   1.393       .  A
C1765      F1772   1.359       .  S
C1766      C1767   1.407       .  A
C1766      F1771   1.359       .  S
C1767      C1768   1.408       .  A
C1768      F1769   1.358       .  S
C1773      C1774   1.405       .  A
C1773      C1778   1.398       .  A
C1773      F1780   1.359       .  S
C1775      C1776   1.406       .  A
C1775      F1782   1.357   1_556  S
C1776      C1777   1.416       .  A
C1776      F1781   1.357   1_556  S
C1778      F1779   1.358       .  S
C1783      C1784   1.405   1_556  A
C1783      C1788   1.399       .  A
C1783      F1790   1.358       .  S
C1785      C1786   1.406       .  A
C1785      F1792   1.358       .  S
C1786      C1787   1.410       .  A
C1786      F1791   1.358       .  S
C1788      F1789   1.358       .  S
C1793      C1794   1.409       .  A
C1793      C1798   1.406       .  A
C1793      F1800   1.358       .  S
C1794      C1795   1.400       .  A
C1795      C1796   1.399       .  A
C1795      F1802   1.358       .  S
C1796      C1797   1.419       .  A
C1796      F1801   1.358       .  S
C1797      C1798   1.410       .  A
C1798      F1799   1.357       .  S
C1803      C1804   1.414       .  A
C1803      C1808   1.397       .  A
C1803      F1810   1.358       .  S
C1804      C1805   1.409       .  A
C1805      C1806   1.409       .  A
C1805      F1812   1.358       .  S
C1806      C1807   1.411       .  A
C1806      F1811   1.358       .  S
C1807      C1808   1.402       .  A
C1808      F1809   1.358       .  S
C1813      C1814   1.416       .  A
C1813      C1818   1.398       .  A
C1813      F1820   1.358       .  S
C1814      C1815   1.410       .  A
C1815      C1816   1.396       .  A
C1815      F1822   1.358       .  S
C1816      C1817   1.406       .  A
C1816      F1821   1.358       .  S
C1817      C1818   1.401       .  A
C1818      F1819   1.358       .  S
C1823      C1824   1.414       .  A
C1823      C1828   1.398       .  A
C1823      F1830   1.358       .  S
C1824      C1825   1.411       .  A
C1825      C1826   1.394       .  A
C1825      F1832   1.358       .  S
C1826      C1827   1.403       .  A
C1826      F1831   1.358       .  S
C1827      C1828   1.402       .  A
C1828      F1829   1.358       .  S
C1833      C1834   1.402       .  A
C1833      C1838   1.400       .  A
C1833      F1840   1.358       .  S
C1834      C1835   1.402       .  A
C1835      C1836   1.395       .  A
C1835      F1842   1.359       .  S
C1836      C1837   1.413       .  A
C1836      F1841   1.358       .  S
C1837      C1838   1.414       .  A
C1838      F1839   1.358       .  S
C1843      C1844   1.400   1_565  A
C1843      C1848   1.392       .  A
C1843      F1850   1.359       .  S
C1844      C1845   1.400       .  A
C1845      C1846   1.400       .  A
C1845      F1852   1.358       .  S
C1846      C1847   1.415       .  A
C1846      F1851   1.358       .  S
C1847      C1848   1.412   1_545  A
C1848      F1849   1.358       .  S
C1853      C1854   1.409       .  A
C1853      C1858   1.409       .  A
C1853      F1860   1.357       .  S
C1855      C1856   1.397       .  A
C1855      F1862   1.358       .  S
C1856      C1857   1.404       .  A
C1856      F1861   1.358       .  S
C1858      F1859   1.358       .  S
C1863      C1864   1.410       .  A
C1863      C1868   1.406       .  A
C1863      F1870   1.358       .  S
C1865      C1866   1.398       .  A
C1865      F1872   1.358       .  S
C1866      C1867   1.402   1_655  A
C1866      F1871   1.358       .  S
C1868      F1869   1.358       .  S
O1873     Mg1875   2.157       .  S
O1873      C1908   1.236       .  S
C1874      O1911   1.269       .  A
C1874      H1913   1.081       .  S
Mg1875     O1919   2.305       .  S
Mg1875     O1915   2.307       .  S
Mg1875     O1886   2.296       .  S
O1876     Mg1901   2.119       .  S
O1877     Mg1901   2.300       .  S
C1878      O1880   1.269       .  A
C1878      O1892   1.271       .  A
C1878      C2129   1.468       .  S
O1879     Mg1881   2.292       .  S
O1880     Mg1912   2.247       .  S
Mg1881     O1887   2.145       .  S
Mg1881     O1895   2.251       .  S
Mg1881     O1883   2.294       .  S
C1882      O1920   1.272       .  A
C1882      C2156   1.485       .  S
O1883      C1890   1.273       .  A
H1884      C1897   1.081       .  S
C1885      O1899   1.236   1_565  S
C1885      H1910   1.082       .  S
O1886      C1909   1.267       .  A
O1887     Mg1901   2.154       .  S
O1888     Mg1918   2.294       .  S
C1889      O1902   1.278       .  A
C1889      C2166   1.494       .  S
C1890      O1917   1.266       .  A
C1890      C2136   1.485       .  S
Mg1891     O1898   2.154       .  S
Mg1891     O1892   2.273       .  S
Mg1891     O1893   2.283       .  S
Mg1891     O1920   2.258       .  S
O1894     Mg1901   2.282       .  S
O1895      C1914   1.271       .  A
O1896     Mg1912   2.297       .  S
O1898     Mg1912   2.160       .  S
O1899     Mg1918   2.162   1_545  S
O1900     Mg1912   2.300       .  S
Mg1901     O1917   2.231       .  S
O1902     Mg1918   2.321       .  S
H1903      C1908   1.081       .  S
O1904     Mg1912   2.134   1_455  S
H1905      C1907   1.081       .  S
H1906      C1909   1.081       .  S
O1911     Mg1918   2.301       .  S
C1914      C2149   1.489       .  S
O1915      C1916   1.278       .  A
C1916      C2176   1.496       .  S
O1921     Mg1929   2.150       .  S
O1921      C1956   1.235       .  S
C1922      O1935   1.234       .  S
C1922      O1959   1.269       .  A
C1922      H1961   1.082       .  S
Mg1923     O1952   2.168       .  S
Mg1923     O1967   2.309       .  S
Mg1923     O1963   2.294       .  S
Mg1923     O2246   2.303       .  S
O1924     Mg1966   2.152       .  S
O1924     Mg2261   2.167   1_554  S
O1924      C1945   1.236       .  S
O1925      C1956   1.271       .  A
O1925     Mg1949   2.310       .  S
C1926      O1928   1.274       .  A
C1926      O1940   1.275       .  A
C1926      C2119   1.486       .  S
O1927      C1955   1.272       .  A
O1928     Mg1960   2.294       .  S
Mg1929     O1935   2.169       .  S
Mg1929     O1943   2.300       .  S
Mg1929     O1931   2.312       .  S
C1930      O1936   1.277       .  A
C1930      C2169   1.487       .  S
O1931      C1938   1.276       .  A
H1932      C1945   1.082       .  S
C1933      O1947   1.235       .  S
C1933      O1948   1.270       .  A
C1933      H1958   1.081       .  S
O1934      C1957   1.270       .  A
O1934     Mg2235   2.302   1_554  S
O1935     Mg1949   2.159       .  S
O1936     Mg1966   2.316       .  S
C1937      O2262   1.274       .  A
C1937      O1942   1.276       .  A
C1937      C2096   1.484       .  S
C1938      O1965   1.273       .  A
C1938      C2106   1.482       .  S
Mg1939     O1946   2.165       .  S
Mg1939     O1947   2.152       .  S
Mg1939     O1940   2.299       .  S
Mg1939     O1968   2.290       .  S
O1941      C1945   1.272       .  A
O1942     Mg1949   2.309       .  S
O1944      C1964   1.275   1_554  A
O1944     Mg1960   2.298       .  S
O1946     Mg1960   2.165       .  S
O1946      C1957   1.236       .  S
O1948     Mg1960   2.304       .  S
Mg1949     O2236   2.160       .  S
Mg1949     O1965   2.284       .  S
O1950      C2249   1.273       .  A
O1950     Mg1966   2.292       .  S
H1951      C1956   1.081       .  S
O1952     Mg2272   2.162       .  S
O1952      C1955   1.236       .  S
H1953      C1955   1.082       .  S
H1954      C1957   1.082       .  S
O1959     Mg2278   2.299       .  S
Mg1960     O2264   2.161   1_554  S
C1962      O1967   1.276   1_455  A
C1962      C2179   1.489       .  S
O1963      C2276   1.273       .  A
C1964      O2275   1.275       .  A
C1964      C2086   1.489       .  S
Mg1966     O2271   2.315   1_554  S
O1969     Mg1971   2.163       .  S
O1969     Mg1977   2.168       .  S
O1969      C2004   1.236       .  S
C1970      O1983   1.233       .  S
C1970      O2007   1.267       .  A
C1970      H2009   1.083       .  S
Mg1971     O2000   2.164       .  S
Mg1971     O2015   2.310       .  S
Mg1971     O2011   2.309       .  S
Mg1971     O1982   2.296       .  S
O1972     Mg2014   2.161       .  S
O1972     Mg1997   2.120       .  S
O1972      C1993   1.234       .  S
O1973      C2004   1.271       .  A
O1973     Mg1997   2.301       .  S
C1974      O1976   1.269       .  A
C1974      O1988   1.273       .  A
C1974      C2069   1.482       .  S
O1975      C2003   1.267       .  A
O1975     Mg1977   2.289       .  S
O1976     Mg2008   2.252       .  S
Mg1977     O1983   2.135       .  S
Mg1977     O1991   2.220       .  S
Mg1977     O1979   2.283       .  S
C1978      O2016   1.270       .  A
C1978      O1984   1.276       .  A
C1978      C2139   1.470       .  S
O1979      C1986   1.271       .  A
H1980      C1993   1.082       .  S
C1981      O1995   1.237       .  S
C1981      O1996   1.271       .  A
C1981      H2006   1.081       .  S
O1982      C2005   1.267       .  A
O1983     Mg1997   2.152       .  S
O1984     Mg2014   2.296       .  S
C1985      O1998   1.279       .  A
C1985      O1990   1.272       .  A
C1985      C2109   1.496       .  S
C1986      O2013   1.267       .  A
C1986      C2076   1.476       .  S
Mg1987     O1994   2.145       .  S
Mg1987     O1995   2.174       .  S
Mg1987     O1988   2.293       .  S
Mg1987     O1989   2.287       .  S
Mg1987     O2016   2.241       .  S
O1989      C1993   1.267       .  A
O1990     Mg1997   2.277       .  S
O1991      C2010   1.267       .  A
O1992      C2012   1.274       .  A
O1992     Mg2008   2.293       .  S
O1994     Mg2008   2.152       .  S
O1994      C2005   1.233       .  S
O1995     Mg2014   2.168       .  S
O1996     Mg2008   2.305       .  S
Mg1997     O2013   2.241       .  S
O1998     Mg2014   2.322       .  S
H1999      C2004   1.081       .  S
O2000     Mg2008   2.126       .  S
O2000      C2003   1.234       .  S
H2001      C2003   1.081       .  S
H2002      C2005   1.083       .  S
O2007     Mg2014   2.294       .  S
C2010      O2015   1.277       .  A
C2010      C2126   1.485       .  S
O2011      C2012   1.278       .  A
C2012      C2116   1.492       .  S
O2017     Mg2025   2.159       .  S
O2017      C2052   1.235       .  S
C2018      O2031   1.234       .  S
C2018      O2055   1.268   1_565  A
C2018      H2057   1.081       .  S
Mg2019     O2048   2.157       .  S
Mg2019     O2063   2.276       .  S
Mg2019     O2059   2.278   1_554  S
Mg2019     O2342   2.297   1_554  S
O2020     Mg2062   2.156       .  S
O2020     Mg2357   2.146       .  S
O2020      C2041   1.236       .  S
O2021      C2052   1.271       .  A
O2021     Mg2045   2.310       .  S
C2022      O2024   1.271       .  A
C2022      O2036   1.274       .  A
C2022      C2079   1.475       .  S
O2023      C2051   1.269       .  A
O2024     Mg2056   2.247       .  S
Mg2025     O2031   2.155       .  S
Mg2025     O2039   2.257       .  S
Mg2025     O2027   2.298       .  S
C2026      O2032   1.270       .  A
C2026      C2146   1.467       .  S
O2027      C2034   1.274       .  A
H2028      C2041   1.081       .  S
C2029      O2043   1.235       .  S
C2029      O2044   1.270       .  A
C2029      H2054   1.081       .  S
O2030      C2053   1.268       .  A
O2030     Mg2331   2.295       .  S
O2031     Mg2045   2.153       .  S
O2032     Mg2062   2.289       .  S
C2033      O2358   1.270   1_554  A
C2033      O2038   1.280       .  A
C2033      C2099   1.496       .  S
C2034      O2061   1.274       .  A
C2034      C2066   1.478       .  S
Mg2035     O2042   2.152       .  S
Mg2035     O2043   2.155       .  S
Mg2035     O2036   2.298       .  S
Mg2035     O2064   2.260       .  S
O2037      C2041   1.272       .  A
O2038     Mg2045   2.350       .  S
O2040      C2060   1.278       .  A
O2040     Mg2056   2.323       .  S
O2042     Mg2056   2.155       .  S
O2042      C2053   1.234       .  S
O2044     Mg2056   2.305       .  S
Mg2045     O2332   2.148   1_554  S
Mg2045     O2061   2.266       .  S
O2046      C2345   1.272       .  A
O2046     Mg2062   2.277       .  S
H2047      C2052   1.081       .  S
O2048     Mg2368   2.123   1_554  S
O2048      C2051   1.236       .  S
H2049      C2051   1.081       .  S
H2050      C2053   1.081       .  S
O2055     Mg2374   2.297   1_544  S
Mg2056     O2360   2.128       .  S
C2058      O2063   1.269       .  A
C2058      C2159   1.459       .  S
O2059      C2372   1.272       .  A
C2060      O2371   1.270       .  A
C2060      C2089   1.490       .  S
Mg2062     O2367   2.297       .  S
C2065      C2066   1.405       .  A
C2065      C2070   1.395       .  A
C2065      F2072   1.358       .  S
C2066      C2067   1.407       .  A
C2067      C2068   1.402       .  A
C2067      F2074   1.358       .  S
C2068      C2069   1.409       .  A
C2068      F2073   1.358       .  S
C2069      C2070   1.410       .  A
C2070      F2071   1.358       .  S
C2075      C2076   1.407       .  A
C2075      C2080   1.400       .  A
C2075      F2082   1.358       .  S
C2076      C2077   1.408       .  A
C2077      C2078   1.393       .  A
C2077      F2084   1.359       .  S
C2078      C2079   1.406       .  A
C2078      F2083   1.359       .  S
C2079      C2080   1.407       .  A
C2080      F2081   1.358       .  S
C2085      C2086   1.408       .  A
C2085      C2090   1.398       .  A
C2085      F2092   1.359       .  S
C2086      C2399   1.407       .  A
C2087      C2398   1.406       .  A
C2087      C2088   1.409       .  A
C2087      F2094   1.357       .  S
C2088      C2089   1.413       .  A
C2088      F2093   1.358       .  S
C2089      C2402   1.408       .  A
C2090      C2401   1.409       .  A
C2090      F2091   1.358       .  S
C2095      C2096   1.404       .  A
C2095      C2100   1.409       .  A
C2095      F2102   1.357       .  S
C2096      C2409   1.405       .  A
C2097      C2408   1.408       .  A
C2097      C2098   1.407       .  A
C2097      F2104   1.358       .  S
C2098      C2099   1.409       .  A
C2098      F2103   1.358       .  S
C2099      C2412   1.415   1_554  A
C2100      C2411   1.415       .  A
C2100      F2101   1.357       .  S
C2105      C2106   1.409       .  A
C2105      C2110   1.406       .  A
C2105      F2112   1.358       .  S
C2106      C2107   1.401       .  A
C2107      C2108   1.398       .  A
C2107      F2114   1.358       .  S
C2108      C2109   1.417       .  A
C2108      F2113   1.358       .  S
C2109      C2110   1.409       .  A
C2110      F2111   1.357       .  S
C2115      C2116   1.413       .  A
C2115      C2120   1.398       .  A
C2115      F2122   1.358       .  S
C2116      C2117   1.409       .  A
C2117      C2118   1.408       .  A
C2117      F2124   1.357       .  S
C2118      C2119   1.410       .  A
C2118      F2123   1.358       .  S
C2119      C2120   1.404       .  A
C2120      F2121   1.358       .  S
C2125      C2126   1.416       .  A
C2125      C2130   1.396       .  A
C2125      F2132   1.358       .  S
C2126      C2127   1.409       .  A
C2127      C2128   1.395       .  A
C2127      F2134   1.358       .  S
C2128      C2129   1.406       .  A
C2128      F2133   1.359       .  S
C2129      C2130   1.399       .  A
C2130      F2131   1.358       .  S
C2135      C2136   1.414       .  A
C2135      C2140   1.397       .  A
C2135      F2142   1.358       .  S
C2136      C2137   1.411       .  A
C2137      C2138   1.394       .  A
C2137      F2144   1.358       .  S
C2138      C2139   1.404       .  A
C2138      F2143   1.358       .  S
C2139      C2140   1.402       .  A
C2140      F2141   1.358       .  S
C2145      C2146   1.401   1_545  A
C2145      C2150   1.396       .  A
C2145      F2152   1.358       .  S
C2146      C2147   1.400       .  A
C2147      C2148   1.400       .  A
C2147      F2154   1.358       .  S
C2148      C2149   1.416       .  A
C2148      F2153   1.358       .  S
C2149      C2150   1.412   1_565  A
C2150      F2151   1.358       .  S
C2155      C2156   1.412       .  A
C2155      C2160   1.393       .  A
C2155      F2162   1.358       .  S
C2156      C2157   1.415       .  A
C2157      C2158   1.400       .  A
C2157      F2164   1.358       .  S
C2158      C2159   1.399       .  A
C2158      F2163   1.358       .  S
C2159      C2160   1.399       .  A
C2160      F2161   1.359       .  S
C2165      C2166   1.408       .  A
C2165      C2170   1.410       .  A
C2165      F2172   1.358       .  S
C2167      C2168   1.398       .  A
C2167      F2174   1.358       .  S
C2168      C2169   1.402       .  A
C2168      F2173   1.358       .  S
C2170      F2171   1.358       .  S
C2175      C2176   1.410       .  A
C2175      C2180   1.408       .  A
C2175      F2182   1.358       .  S
C2177      C2178   1.399       .  A
C2177      F2184   1.358       .  S
C2178      C2179   1.405   1_655  A
C2178      F2183   1.358       .  S
C2180      F2181   1.358       .  S
O2185     Mg2187   2.158       .  S
O2185      C2220   1.236       .  S
C2186      O2223   1.269       .  A
C2186      H2225   1.081       .  S
Mg2187     O2231   2.298       .  S
Mg2187     O2227   2.308       .  S
Mg2187     O2198   2.298       .  S
O2188     Mg2213   2.121       .  S
O2189     Mg2213   2.306       .  S
C2190      O2192   1.268       .  A
C2190      O2204   1.273       .  A
C2190      C2441   1.467       .  S
O2191     Mg2193   2.290       .  S
O2192     Mg2224   2.233       .  S
Mg2193     O2199   2.147       .  S
Mg2193     O2207   2.256       .  S
Mg2193     O2195   2.275       .  S
C2194      O2232   1.272       .  A
C2194      C2468   1.485       .  S
O2195      C2202   1.271       .  A
H2196      C2209   1.081       .  S
C2197      O2211   1.236       .  S
C2197      H2222   1.082       .  S
O2198      C2221   1.269       .  A
O2199     Mg2213   2.147       .  S
O2200     Mg2230   2.291       .  S
C2201      O2214   1.277       .  A
C2201      C2478   1.491       .  S
C2202      O2229   1.267       .  A
C2202      C2448   1.481       .  S
Mg2203     O2210   2.149       .  S
Mg2203     O2204   2.287       .  S
Mg2203     O2205   2.291       .  S
Mg2203     O2232   2.260       .  S
O2206     Mg2213   2.283       .  S
O2207      C2226   1.271       .  A
O2208     Mg2224   2.301       .  S
O2210     Mg2224   2.165       .  S
O2211     Mg2230   2.159       .  S
O2212     Mg2224   2.298       .  S
Mg2213     O2229   2.237       .  S
O2214     Mg2230   2.315       .  S
H2215      C2220   1.081       .  S
O2216     Mg2224   2.122   1_455  S
H2217      C2219   1.081   1_545  S
H2218      C2221   1.081       .  S
O2223     Mg2230   2.301       .  S
C2226      C2461   1.487       .  S
O2227      C2228   1.277       .  A
C2228      C2488   1.499       .  S
O2233     Mg2241   2.156       .  S
O2233      C2268   1.236       .  S
C2234      O2247   1.236       .  S
C2234      O2271   1.272       .  A
C2234      H2273   1.082       .  S
Mg2235     O2264   2.167       .  S
Mg2235     O2279   2.315       .  S
Mg2235     O2275   2.307       .  S
O2236     Mg2278   2.175       .  S
O2236      C2257   1.236       .  S
O2237      C2268   1.273       .  A
O2237     Mg2261   2.316       .  S
C2238      O2240   1.274       .  A
C2238      O2252   1.275       .  A
C2238      C2431   1.487       .  S
O2239      C2267   1.270       .  A
O2240     Mg2272   2.298       .  S
Mg2241     O2247   2.178       .  S
Mg2241     O2255   2.306       .  S
Mg2241     O2243   2.322       .  S
C2242      O2248   1.276       .  A
C2242      C2481   1.487       .  S
O2243      C2250   1.277       .  A
H2244      C2257   1.082       .  S
C2245      O2259   1.235       .  S
C2245      O2260   1.270       .  A
C2245      H2270   1.081       .  S
O2246      C2269   1.270       .  A
O2247     Mg2261   2.152       .  S
O2248     Mg2278   2.308       .  S
C2249      O2254   1.276   1_554  A
C2249      C2408   1.483       .  S
C2250      O2277   1.272       .  A
C2250      C2418   1.485       .  S
Mg2251     O2258   2.162       .  S
Mg2251     O2259   2.155       .  S
Mg2251     O2252   2.299       .  S
Mg2251     O2280   2.286       .  S
O2253      C2257   1.271       .  A
O2254     Mg2261   2.326       .  S
O2256      C2276   1.275       .  A
O2256     Mg2272   2.297       .  S
O2258     Mg2272   2.159       .  S
O2258      C2269   1.235       .  S
O2260     Mg2272   2.306       .  S
Mg2261     O2277   2.284       .  S
O2262     Mg2278   2.296       .  S
H2263      C2268   1.081       .  S
O2264      C2267   1.235       .  S
H2265      C2267   1.082       .  S
H2266      C2269   1.082       .  S
C2274      O2279   1.277   1_455  A
C2274      C2491   1.489       .  S
C2276      C2398   1.483       .  S
O2281     Mg2283   2.169       .  S
O2281     Mg2289   2.168       .  S
O2281      C2316   1.236       .  S
C2282      O2295   1.234       .  S
C2282      O2319   1.268       .  A
C2282      H2321   1.083       .  S
Mg2283     O2312   2.166       .  S
Mg2283     O2327   2.299       .  S
Mg2283     O2323   2.319       .  S
Mg2283     O2294   2.289       .  S
O2284     Mg2326   2.157       .  S
O2284     Mg2309   2.115       .  S
O2284      C2305   1.234       .  S
O2285      C2316   1.271       .  A
O2285     Mg2309   2.303       .  S
C2286      O2288   1.270       .  A
C2286      O2300   1.273       .  A
C2286      C2381   1.482       .  S
O2287      C2315   1.268       .  A
O2287     Mg2289   2.292       .  S
O2288     Mg2320   2.259       .  S
Mg2289     O2295   2.139       .  S
Mg2289     O2303   2.233       .  S
Mg2289     O2291   2.294       .  S
C2290      O2328   1.268       .  A
C2290      O2296   1.275       .  A
C2290      C2451   1.465       .  S
O2291      C2298   1.273       .  A
H2292      C2305   1.082       .  S
C2293      O2307   1.237       .  S
C2293      O2308   1.271       .  A
C2293      H2318   1.081       .  S
O2294      C2317   1.266       .  A
O2295     Mg2309   2.155       .  S
O2296     Mg2326   2.288       .  S
C2297      O2310   1.278       .  A
C2297      O2302   1.272       .  A
C2297      C2421   1.499       .  S
C2298      O2325   1.267       .  A
C2298      C2388   1.476       .  S
Mg2299     O2306   2.129       .  S
Mg2299     O2307   2.174       .  S
Mg2299     O2300   2.291       .  S
Mg2299     O2301   2.286       .  S
Mg2299     O2328   2.226       .  S
O2301      C2305   1.267       .  A
O2302     Mg2309   2.281       .  S
O2303      C2322   1.269       .  A
O2304      C2324   1.273       .  A
O2304     Mg2320   2.285       .  S
O2306     Mg2320   2.147       .  S
O2306      C2317   1.233       .  S
O2307     Mg2326   2.167       .  S
O2308     Mg2320   2.303       .  S
Mg2309     O2325   2.237       .  S
O2310     Mg2326   2.322       .  S
H2311      C2316   1.081       .  S
O2312     Mg2320   2.128       .  S
O2312      C2315   1.234       .  S
H2313      C2315   1.081       .  S
H2314      C2317   1.083       .  S
O2319     Mg2326   2.297       .  S
C2322      O2327   1.276       .  A
C2322      C2438   1.484       .  S
O2323      C2324   1.279       .  A
C2324      C2428   1.494       .  S
O2329     Mg2337   2.160       .  S
O2329      C2364   1.235       .  S
C2330      O2343   1.234       .  S
C2330      O2367   1.268       .  A
C2330      H2369   1.081       .  S
Mg2331     O2360   2.156       .  S
Mg2331     O2375   2.281       .  S
Mg2331     O2371   2.264       .  S
O2332     Mg2374   2.157       .  S
O2332      C2353   1.236       .  S
O2333      C2364   1.270       .  A
O2333     Mg2357   2.308       .  S
C2334      O2336   1.271       .  A
C2334      O2348   1.274       .  A
C2334      C2391   1.477       .  S
O2335      C2363   1.270       .  A
O2336     Mg2368   2.241       .  S
Mg2337     O2343   2.150       .  S
Mg2337     O2351   2.238       .  S
Mg2337     O2339   2.290       .  S
C2338      O2344   1.269       .  A
C2338      C2458   1.464       .  S
O2339      C2346   1.271       .  A
H2340      C2353   1.081       .  S
C2341      O2355   1.235       .  S
C2341      O2356   1.271       .  A
C2341      H2366   1.081       .  S
O2342      C2365   1.268       .  A
O2343     Mg2357   2.147       .  S
O2344     Mg2374   2.279       .  S
C2345      O2350   1.278       .  A
C2345      C2411   1.498       .  S
C2346      O2373   1.273       .  A
C2346      C2378   1.478       .  S
Mg2347     O2354   2.157       .  S
Mg2347     O2355   2.142       .  S
Mg2347     O2348   2.307       .  S
Mg2347     O2376   2.266       .  S
O2349      C2353   1.271       .  A
O2350     Mg2357   2.326       .  S
O2352      C2372   1.279       .  A
O2352     Mg2368   2.329       .  S
O2354     Mg2368   2.159       .  S
O2354      C2365   1.234       .  S
O2356     Mg2368   2.309       .  S
Mg2357     O2373   2.270       .  S
O2358     Mg2374   2.255       .  S
H2359      C2364   1.081       .  S
O2360      C2363   1.236       .  S
H2361      C2363   1.081       .  S
H2362      C2365   1.081       .  S
C2370      O2375   1.269       .  A
C2370      C2471   1.467       .  S
C2372      C2401   1.495       .  S
C2377      C2378   1.405       .  A
C2377      C2382   1.395       .  A
C2377      F2384   1.358       .  S
C2378      C2379   1.408       .  A
C2379      C2380   1.402       .  A
C2379      F2386   1.358       .  S
C2380      C2381   1.409       .  A
C2380      F2385   1.358       .  S
C2381      C2382   1.410       .  A
C2382      F2383   1.358       .  S
C2387      C2388   1.408       .  A
C2387      C2392   1.402       .  A
C2387      F2394   1.358       .  S
C2388      C2389   1.406       .  A
C2389      C2390   1.393       .  A
C2389      F2396   1.359       .  S
C2390      C2391   1.407       .  A
C2390      F2395   1.358       .  S
C2391      C2392   1.408       .  A
C2392      F2393   1.358       .  S
C2397      C2398   1.406       .  A
C2397      C2402   1.396       .  A
C2397      F2404   1.359       .  S
C2399      C2400   1.411       .  A
C2399      F2406   1.357       .  S
C2400      C2401   1.414       .  A
C2400      F2405   1.357       .  S
C2402      F2403   1.358       .  S
C2407      C2408   1.401   1_556  A
C2407      C2412   1.402       .  A
C2407      F2414   1.358       .  S
C2409      C2410   1.400       .  A
C2409      F2416   1.358       .  S
C2410      C2411   1.412       .  A
C2410      F2415   1.358       .  S
C2412      F2413   1.358       .  S
C2417      C2418   1.410       .  A
C2417      C2422   1.408       .  A
C2417      F2424   1.358       .  S
C2418      C2419   1.400       .  A
C2419      C2420   1.399       .  A
C2419      F2426   1.358       .  S
C2420      C2421   1.418       .  A
C2420      F2425   1.358       .  S
C2421      C2422   1.410       .  A
C2422      F2423   1.358       .  S
C2427      C2428   1.413       .  A
C2427      C2432   1.397       .  A
C2427      F2434   1.358       .  S
C2428      C2429   1.409       .  A
C2429      C2430   1.409       .  A
C2429      F2436   1.357       .  S
C2430      C2431   1.411       .  A
C2430      F2435   1.358       .  S
C2431      C2432   1.404       .  A
C2432      F2433   1.358       .  S
C2437      C2438   1.415       .  A
C2437      C2442   1.397       .  A
C2437      F2444   1.358       .  S
C2438      C2439   1.410       .  A
C2439      C2440   1.394       .  A
C2439      F2446   1.358       .  S
C2440      C2441   1.404       .  A
C2440      F2445   1.358       .  S
C2441      C2442   1.401       .  A
C2442      F2443   1.358       .  S
C2447      C2448   1.412       .  A
C2447      C2452   1.397       .  A
C2447      F2454   1.358       .  S
C2448      C2449   1.411       .  A
C2449      C2450   1.390       .  A
C2449      F2456   1.357       .  S
C2450      C2451   1.402       .  A
C2450      F2455   1.359       .  S
C2451      C2452   1.404       .  A
C2452      F2453   1.358       .  S
C2457      C2458   1.399       .  A
C2457      C2462   1.400       .  A
C2457      F2464   1.358       .  S
C2458      C2459   1.401   1_565  A
C2459      C2460   1.396       .  A
C2459      F2466   1.358       .  S
C2460      C2461   1.411   1_545  A
C2460      F2465   1.358       .  S
C2461      C2462   1.415       .  A
C2462      F2463   1.357       .  S
C2467      C2468   1.412       .  A
C2467      C2472   1.392       .  A
C2467      F2474   1.358       .  S
C2468      C2469   1.413       .  A
C2469      C2470   1.401       .  A
C2469      F2476   1.358       .  S
C2470      C2471   1.403       .  A
C2470      F2475   1.358       .  S
C2471      C2472   1.400       .  A
C2472      F2473   1.359       .  S
C2477      C2478   1.408       .  A
C2477      C2482   1.409       .  A
C2477      F2484   1.358       .  S
C2479      C2480   1.396       .  A
C2479      F2486   1.358       .  S
C2480      C2481   1.403       .  A
C2480      F2485   1.358       .  S
C2482      F2483   1.358       .  S
C2487      C2488   1.412       .  A
C2487      C2492   1.409       .  A
C2487      F2494   1.358       .  S
C2489      C2490   1.400       .  A
C2489      F2496   1.358       .  S
C2490      C2491   1.404   1_655  A
C2490      F2495   1.358       .  S
C2492      F2493   1.358       .  S
