geometry optimzed in LAMMPS
_audit_creation_date              2020-11-30 
_audit_creation_method            'lammps2cif' 
_symmetry_space_group_name_H-M    'P1' 
_symmetry_Int_Tables_number       1 
_symmetry_cell_setting            triclinic 
loop_ 
_symmetry_equiv_pos_as_xyz 
  x,y,z 
_cell_length_a                    24.93503955 
_cell_length_b                    24.147201177466698 
_cell_length_c                    29.013947407831218 
_cell_angle_alpha                 88.27883724210852 
_cell_angle_beta                  90.49840410668975 
_cell_angle_gamma                 90.02611089874584 
loop_ 
_atom_site_label 
_atom_site_type_symbol 
_atom_site_fract_x 
_atom_site_fract_y 
_atom_site_fract_z 
_atom_site_charge 
C1          C  0.67402680  0.64017591  0.10481872     0.81100
N2          N  0.69026542  0.65694496  0.06168691    -0.77200
C3          C  0.73080422  0.69489150  0.05706356     0.83500
N4          N  0.75456599  0.71562583  0.09536651    -0.77200
C5          C  0.73865639  0.69885857  0.13793680     0.83600
N6          N  0.69852491  0.66126749  0.14223398    -0.78900
C7          C  0.82157664  0.77977178  0.22035461     0.81700
N8          N  0.78922073  0.75437415  0.01145024    -0.77200
C9          C  0.75049498  0.71498994  0.01174421     0.83500
N10         N  0.74657891  0.69834955  0.22078173    -0.77200
C11         C  0.76359452  0.72014327  0.18002917     0.83600
N12         N  0.80140423  0.76121282  0.17956485    -0.78900
C13         C  0.65587501  0.27072192  0.08512475     0.81100
N14         N  0.67599729  0.24790773  0.04682672    -0.77200
C15         C  0.71608108  0.20993386  0.05006314     0.83500
N16         N  0.73612683  0.19464133  0.09215150    -0.77200
C17         C  0.71626269  0.21707016  0.13094570     0.83600
N18         N  0.67618768  0.25524181  0.12733470    -0.78900
C19         C  0.80189950  0.14596125  0.21876181     0.81100
N20         N  0.77964480  0.16264716  0.17795529    -0.77200
C21         C  0.73922389  0.20028170  0.17618044     0.83500
N22         N  0.72084090  0.22176295  0.21597026    -0.77200
C23         C  0.73840498  0.18758224  0.00773917     0.83600
N24         N  0.77928269  0.15023595  0.00909058    -0.78900
C25         C  0.31362358  0.65007947  0.14233751     0.81100
N26         N  0.29593313  0.67079223  0.18265631    -0.77200
C27         C  0.25708653  0.71050234  0.18204070     0.83500
N28         N  0.23609501  0.72932118  0.14102290    -0.77200
C29         C  0.25363997  0.70893036  0.10089204     0.83600
N30         N  0.29234292  0.66944626  0.10181586    -0.78900
C31         C  0.17669823  0.79486767  0.25952064     0.81100
N32         N  0.19765280  0.77244371  0.22157050    -0.77200
C33         C  0.23672772  0.73368388  0.22487871     0.83500
N34         N  0.25552034  0.71702453  0.26721772    -0.77200
C35         C  0.23225762  0.72922075  0.05617171     0.83600
N36         N  0.19126655  0.76669426  0.05261330    -0.78900
O37         O  0.92718613  0.90221725  0.05418923    -0.73600
O38         O  0.03542169  0.01809318  0.05635077    -0.73600
O39         O  0.92665373  0.01448063  0.05021147    -0.73700
O40         O  0.03565362  0.90570663  0.06439774    -0.73700
O41         O  0.04780801  0.91556982  0.23683402    -0.73600
O42         O  0.93284099  0.02333996  0.22257675    -0.73600
O43         O  0.04140200  0.02768982  0.22912917    -0.73600
O44         O  0.93931349  0.91084030  0.22635373    -0.73700
Ni45       Ni  0.98096816  0.96020894  0.05900559     1.25400
Ni46       Ni  0.99061307  0.96924424  0.22599306     1.25400
C47         C  0.91846612  0.89215214  0.26369716     0.88600
C48         C  0.05534400  0.04899527  0.26708529     0.88500
C49         C  0.91072595  0.03089443  0.01026172     0.88600
C50         C  0.05802591  0.88613153  0.02911813     0.88700
O51         O  0.43695214  0.52535177  0.14268631    -0.73600
O52         O  0.54115672  0.41001624  0.14745223    -0.73600
O53         O  0.54539683  0.52161424  0.13265072    -0.73700
O54         O  0.43263650  0.41353038  0.15462921    -0.73700
O55         O  0.42516628  0.40461880  0.07855018    -0.73600
O56         O  0.53564961  0.51122051  0.05694840    -0.73600
O57         O  0.53335980  0.39954880  0.07156129    -0.73600
O58         O  0.42740748  0.51635424  0.06679448    -0.73700
Ni59       Ni  0.48942046  0.46803411  0.14705624     1.25400
Ni60       Ni  0.48007666  0.45760871  0.06578845     1.25400
C61         C  0.41456958  0.53968656  0.10438669     0.88600
C62         C  0.55445442  0.38564681  0.11082998     0.88500
C63         C  0.55899737  0.53396544  0.09083646     0.88600
C64         C  0.41043194  0.39140492  0.11946579     0.88700
C65         C  0.16113798  0.14719805  0.04667385     0.81100
N66         N  0.18100549  0.16922526  0.08577469    -0.77200
C67         C  0.22001443  0.20843765  0.08386266     0.83500
N68         N  0.23936877  0.22587337  0.04224135    -0.77200
C69         C  0.21496031  0.22018946  0.25231984     0.83600
N70         N  0.17572618  0.18093059  0.25490417    -0.78900
C71         C  0.30055623  0.29149887  0.16511833     0.81100
N72         N  0.27871438  0.27533885  0.20609530    -0.77200
C73         C  0.23811710  0.23761095  0.20770606     0.83500
N74         N  0.21940775  0.21597807  0.16800336    -0.77200
C75         C  0.24081774  0.23190540  0.12678569     0.83600
N76         N  0.28130399  0.26962395  0.12552903    -0.78900
C77         C  0.36698303  0.34991846  0.12397346    -0.15600
C78         C  0.34485455  0.33273497  0.16397769    -0.30800
H79         H  0.35212214  0.33313524  0.09195512     0.13400
H80         H  0.35911782  0.34931972  0.19624699     0.14000
C81         C  0.09527487  0.09410091  0.26434350    -0.15600
C82         C  0.11383864  0.12083451  0.30095872    -0.30800
H83         H  0.11033399  0.10530884  0.23027938     0.13400
H84         H  0.10514742  0.09212868  0.08541868     0.14000
C85         C  0.10125015  0.84522939  0.03737812    -0.15600
C86         C  0.12922796  0.82438420  0.00295493    -0.30800
H87         H  0.11073318  0.83270882  0.07280479     0.13400
H88         H  0.12308470  0.84797635  0.21674992     0.14000
C89         C  0.35566170  0.60676844  0.14263497    -0.15600
C90         C  0.37309703  0.58352899  0.10365546    -0.30800
H91         H  0.37232095  0.59339266  0.17584914     0.13400
H92         H  0.35611190  0.59634134  0.07042434     0.14000
C93         C  0.84442648  0.09100135  0.96918136    -0.15600
C94         C  0.86729840  0.07214274  0.00842556    -0.30800
H95         H  0.86004002  0.09063642  0.18569827     0.13400
H96         H  0.85306457  0.08680691  0.04119837     0.14000
C97         C  0.61340305  0.31325406  0.07973266    -0.15600
C98         C  0.59500616  0.34125947  0.11550769    -0.30800
H99         H  0.59799278  0.32273009  0.04523942     0.13400
H100        H  0.61086660  0.33205009  0.14989827     0.14000
C101        C  0.86163360  0.82519007  0.22142671    -0.15600
C102        C  0.87875882  0.84670553  0.26162422    -0.30800
H103        H  0.87683094  0.84151078  0.18877712     0.13400
H104        H  0.85449522  0.82386487  0.04578207     0.14000
C105        C  0.60218269  0.57473500  0.08026279    -0.15600
C106        C  0.63024685  0.59957694  0.11337810    -0.30800
H107        H  0.61125969  0.58409106  0.04430343     0.13400
H108        H  0.62088968  0.58967578  0.14920851     0.14000
C109        C  0.68315878  0.63762850  0.34384362     0.81100
N110        N  0.70497279  0.65662249  0.30385609    -0.77200
C111        C  0.74551678  0.69396073  0.30419768     0.83500
N112        N  0.76450940  0.71249872  0.34468219    -0.77200
C113        C  0.74340664  0.69373361  0.38501807     0.83600
N114        N  0.70243850  0.65628193  0.38470116    -0.78900
C115        C  0.82079460  0.77790272  0.46694498     0.81700
N116        N  0.80380203  0.75702268  0.26072213    -0.77200
C117        C  0.76652637  0.71636327  0.26095117     0.83500
N118        N  0.74505321  0.69664897  0.46918217    -0.77200
C119        C  0.76417835  0.71574809  0.42822418     0.83600
N120        N  0.80197173  0.75636875  0.42724143    -0.78900
C121        C  0.66398292  0.28695752  0.34065789     0.81100
N122        N  0.68287633  0.26696239  0.30042924    -0.77200
C123        C  0.72263141  0.22817898  0.30093919     0.83500
N124        N  0.74338270  0.20967694  0.34209919    -0.77200
C125        C  0.72476008  0.22938944  0.38239081     0.83600
N126        N  0.68510704  0.26790708  0.38144083    -0.78900
C127        C  0.80611610  0.14925509  0.46844540     0.81100
N128        N  0.78637556  0.16992270  0.42772332    -0.77200
C129        C  0.74659925  0.20829632  0.42686222     0.83500
N130        N  0.72646474  0.22609628  0.46726106    -0.77200
C131        C  0.74281439  0.20546282  0.25737790     0.83600
N132        N  0.78330887  0.16744617  0.25851868    -0.78900
C133        C  0.31512433  0.66191015  0.39604190     0.81100
N134        N  0.29552928  0.68298740  0.43512259    -0.77200
C135        C  0.25670347  0.72229492  0.43362411     0.83500
N136        N  0.23688053  0.74090290  0.39192205    -0.77200
C137        C  0.25625656  0.72003182  0.35205738     0.83600
N138        N  0.29539271  0.68050584  0.35447965    -0.78900
C139        C  0.17919690  0.79932261  0.52024455     0.81100
N140        N  0.19703078  0.78152941  0.47892065    -0.77200
C141        C  0.23684621  0.74300957  0.47775170     0.83500
N142        N  0.25844184  0.72239180  0.51809287    -0.77200
C143        C  0.23515064  0.73916754  0.30614122     0.83600
N144        N  0.19543760  0.77819796  0.30215975    -0.78900
O145        O  0.93158497  0.91226264  0.30281745    -0.73600
O146        O  0.03542084  0.03149073  0.30563675    -0.73600
O147        O  0.92706963  0.02467212  0.29919794    -0.73700
O148        O  0.03973822  0.91920454  0.31316240    -0.73700
O149        O  0.04414557  0.92327106  0.45508110    -0.73600
O150        O  0.93014843  0.02746340  0.46426774    -0.73600
O151        O  0.03848866  0.03515249  0.46054912    -0.73600
O152        O  0.93574070  0.91522530  0.46054562    -0.73700
Ni153      Ni  0.98315221  0.97195556  0.30790752     1.25400
Ni154      Ni  0.98690534  0.97552340  0.45738327     1.25400
C155        C  0.92175072  0.89264655  0.49930474     0.88600
C156        C  0.05768535  0.05137796  0.49910714     0.88500
C157        C  0.91133536  0.04174983  0.25931673     0.88600
C158        C  0.06260309  0.90000581  0.27790784     0.88700
O159        O  0.43545948  0.53123062  0.40827044    -0.73600
O160        O  0.53911648  0.41218691  0.41434223    -0.73600
O161        O  0.54418562  0.52422471  0.41332702    -0.73700
O162        O  0.43009785  0.41909640  0.41179668    -0.73700
O163        O  0.43188797  0.41897409  0.33497923    -0.73600
O164        O  0.54799714  0.52462347  0.33653738    -0.73600
O165        O  0.54091751  0.41278086  0.33751897    -0.73600
O166        O  0.43910841  0.53103036  0.33150749    -0.73700
Ni167      Ni  0.48709941  0.47164920  0.41465835     1.25400
Ni168      Ni  0.49004276  0.47186224  0.33240524     1.25400
C169        C  0.42016183  0.55045620  0.36846931     0.88600
C170        C  0.55746324  0.39339435  0.37660592     0.88500
C171        C  0.56533698  0.54134900  0.37560703     0.88600
C172        C  0.41174903  0.40197994  0.37347835     0.88700
C173        C  0.15530635  0.16456661  0.29660056     0.81100
N174        N  0.17446947  0.18762124  0.33537628    -0.77200
C175        C  0.21357237  0.22665499  0.33299242     0.83500
N176        N  0.23379174  0.24276245  0.29152297    -0.77200
C177        C  0.21649704  0.22475211  0.50003632     0.83600
N178        N  0.17794727  0.18491658  0.49937732    -0.78900
C179        C  0.29787994  0.30455052  0.41413916     0.81100
N180        N  0.27820256  0.28541857  0.45532647    -0.77200
C181        C  0.23721964  0.24808902  0.45640695     0.83500
N182        N  0.21624586  0.23014800  0.41640968    -0.77200
C183        C  0.23545356  0.24894212  0.37541188     0.83600
N184        N  0.27636743  0.28601417  0.37425052    -0.78900
C185        C  0.36646973  0.36232921  0.37367248    -0.15600
C186        C  0.34314861  0.34421105  0.41317736    -0.30800
H187        H  0.35195240  0.34803428  0.34068441     0.13400
H188        H  0.35791826  0.35853271  0.44608681     0.14000
C189        C  0.09729420  0.09728613  0.49928188    -0.15600
C190        C  0.11824242  0.11702579  0.53865078    -0.30800
H191        H  0.10977377  0.11486336  0.46617834     0.13400
H192        H  0.09909347  0.10974972  0.33514630     0.14000
C193        C  0.10647609  0.85940948  0.28636980    -0.15600
C194        C  0.13354207  0.83649619  0.25221770    -0.30800
H195        H  0.11646270  0.84791429  0.32192120     0.13400
H196        H  0.12406532  0.85189240  0.55807595     0.14000
C197        C  0.35688838  0.61835547  0.40026169    -0.15600
C198        C  0.37970600  0.59524305  0.36382208    -0.30800
H199        H  0.36890093  0.60459949  0.43483894     0.13400
H200        H  0.36793721  0.60901169  0.32919364     0.14000
C201        C  0.84585638  0.10450903  0.21871842    -0.15600
C202        C  0.86779592  0.08344947  0.25776119    -0.30800
H203        H  0.86352745  0.09580566  0.43434005     0.13400
H204        H  0.85307039  0.09712912  0.29067543     0.14000
C205        C  0.62088189  0.32933958  0.33965525    -0.15600
C206        C  0.59896991  0.34936263  0.37825040    -0.30800
H207        H  0.60713061  0.34477936  0.30604377     0.13400
H208        H  0.61248687  0.33396588  0.41193773     0.14000
C209        C  0.86105608  0.82327114  0.46416000    -0.15600
C210        C  0.88227905  0.84664051  0.50164317    -0.30800
H211        H  0.87329789  0.83801513  0.43009480     0.13400
H212        H  0.86303807  0.83081128  0.29421797     0.14000
C213        C  0.61058865  0.58060973  0.37850127    -0.15600
C214        C  0.63795856  0.59822240  0.34135676    -0.30800
H215        H  0.62197444  0.59486744  0.41238351     0.13400
H216        H  0.62643412  0.58389385  0.30752286     0.14000
C217        C  0.67924634  0.63814532  0.59208615     0.81100
N218        N  0.70123472  0.65793003  0.55230953    -0.77200
C219        C  0.74105458  0.69628790  0.55295456     0.83500
N220        N  0.75907270  0.71497107  0.59390280    -0.77200
C221        C  0.73761950  0.69538672  0.63414415     0.83600
N222        N  0.69760695  0.65697254  0.63315306    -0.78900
C223        C  0.81556610  0.77649004  0.71777166     0.81700
N224        N  0.80139815  0.75827226  0.50811468    -0.77200
C225        C  0.76350132  0.71752175  0.50920617     0.83500
N226        N  0.73842418  0.69681062  0.71918787    -0.77200
C227        C  0.75780259  0.71644624  0.67820091     0.83600
N228        N  0.79624261  0.75624785  0.67782372    -0.78900
C229        C  0.66386373  0.27997485  0.59269645     0.81100
N230        N  0.68425630  0.26288056  0.55220857    -0.77200
C231        C  0.72391757  0.22426045  0.55206357     0.83500
N232        N  0.74316315  0.20275351  0.59274469    -0.77200
C233        C  0.72296442  0.21958124  0.63332338     0.83600
N234        N  0.68337274  0.25818574  0.63313586    -0.78900
C235        C  0.80378994  0.13802313  0.71901288     0.81100
N236        N  0.78420191  0.15878139  0.67818985    -0.77200
C237        C  0.74392003  0.19667270  0.67732377     0.83500
N238        N  0.72317010  0.21378923  0.71752880    -0.77200
C239        C  0.74598420  0.20560242  0.50825709     0.83600
N240        N  0.78579099  0.16715189  0.50865757    -0.78900
C241        C  0.32034593  0.65737196  0.64585662     0.81100
N242        N  0.30042153  0.67693633  0.68544210    -0.77200
C243        C  0.26182948  0.71641657  0.68457890     0.83500
N244        N  0.24300051  0.73672317  0.64348861    -0.77200
C245        C  0.26270256  0.71775074  0.60330636     0.83600
N246        N  0.30139183  0.67780834  0.60450692    -0.78900
C247        C  0.17994576  0.78901832  0.77052231     0.81100
N248        N  0.19949543  0.77294176  0.72927574    -0.77200
C249        C  0.24034106  0.73540640  0.72830493     0.83500
N250        N  0.26124952  0.71404629  0.76844073    -0.77200
C251        C  0.24070579  0.74010005  0.55924794     0.83600
N252        N  0.20117864  0.77848362  0.55992847    -0.78900
O253        O  0.94138462  0.90948759  0.53728255    -0.73600
O254        O  0.04322391  0.02821990  0.53727563    -0.73600
O255        O  0.93480392  0.02152923  0.54104409    -0.73700
O256        O  0.04984238  0.91643974  0.53180945    -0.73700
O257        O  0.04389265  0.91321274  0.70598274    -0.73600
O258        O  0.93130495  0.01939888  0.71509805    -0.73600
O259        O  0.03984883  0.02510843  0.71095045    -0.73600
O260        O  0.93531080  0.90744429  0.71188813    -0.73700
Ni261      Ni  0.99249730  0.96861759  0.53956827     1.25400
Ni262      Ni  0.98738371  0.96651753  0.70826420     1.25400
C263        C  0.92102092  0.88541956  0.75073898     0.88600
C264        C  0.05946617  0.04103879  0.74939860     0.88500
C265        C  0.91384675  0.04205916  0.50380439     0.88600
C266        C  0.06589339  0.90274234  0.49175728     0.88700
O267        O  0.43676250  0.52459228  0.65775889    -0.73600
O268        O  0.54059651  0.40639063  0.66593926    -0.73600
O269        O  0.54531289  0.51859643  0.66273373    -0.73700
O270        O  0.43175409  0.41216042  0.66309395    -0.73700
O271        O  0.43388747  0.41050673  0.58633727    -0.73600
O272        O  0.54871245  0.51789209  0.58596503    -0.73600
O273        O  0.54266208  0.40579625  0.58913877    -0.73600
O274        O  0.43996470  0.52276275  0.58102079    -0.73700
Ni275      Ni  0.48847228  0.46548406  0.66511036     1.25400
Ni276      Ni  0.49137433  0.46415793  0.58289428     1.25400
C277        C  0.42146518  0.54311060  0.61776211     0.88600
C278        C  0.55892807  0.38698520  0.62849881     0.88500
C279        C  0.56589310  0.53571599  0.62471169     0.88600
C280        C  0.41398569  0.39372276  0.62499873     0.88700
C281        C  0.15923766  0.16162451  0.53928856     0.81100
N282        N  0.17950284  0.17862520  0.58022381    -0.77200
C283        C  0.21815124  0.21850054  0.58112433     0.83500
N284        N  0.23657209  0.24127234  0.54092880    -0.77200
C285        C  0.22178676  0.21003784  0.75018034     0.83600
N286        N  0.18286682  0.17067659  0.74946763    -0.78900
C287        C  0.30319757  0.29148934  0.66512912     0.81100
N288        N  0.28376488  0.27087169  0.70591453    -0.77200
C289        C  0.24310050  0.23309892  0.70635855     0.83500
N290        N  0.22196265  0.21615487  0.66580080    -0.77200
C291        C  0.24092386  0.23669110  0.62506071     0.83600
N292        N  0.28148238  0.27423276  0.62493740    -0.78900
C293        C  0.36979025  0.35262127  0.62536034    -0.15600
C294        C  0.34766228  0.33237327  0.66476211    -0.30800
H295        H  0.35515983  0.33875668  0.59227077     0.13400
H296        H  0.36260831  0.34600703  0.69782851     0.14000
C297        C  0.09994911  0.08587009  0.74936621    -0.15600
C298        C  0.12115604  0.10505030  0.78874108    -0.30800
H299        H  0.11280646  0.10307375  0.71624576     0.13400
H300        H  0.10553591  0.09942203  0.57168569     0.14000
C301        C  0.10999329  0.86266357  0.48691976    -0.15600
C302        C  0.13566662  0.84025010  0.52366677    -0.30800
H303        H  0.12138093  0.85133741  0.45238955     0.13400
H304        H  0.12361877  0.84018844  0.80858373     0.14000
C305        C  0.36128512  0.61321571  0.64947071    -0.15600
C306        C  0.38180400  0.58843583  0.61288956    -0.30800
H307        H  0.37426321  0.59999720  0.68393127     0.13400
H308        H  0.36902168  0.60138555  0.57832349     0.14000
C309        C  0.84907692  0.10736348  0.46794794    -0.15600
C310        C  0.87049694  0.08349871  0.50639187    -0.30800
H311        H  0.86175746  0.08489180  0.68509403     0.13400
H312        H  0.85643940  0.09482857  0.54016553     0.14000
C313        C  0.62135864  0.32257187  0.59205345    -0.15600
C314        C  0.59989499  0.34270314  0.63064122    -0.30800
H315        H  0.60791302  0.33843312  0.55846747     0.13400
H316        H  0.61325458  0.32723668  0.66436010     0.14000
C317        C  0.85705838  0.82029506  0.71541235    -0.15600
C318        C  0.88026167  0.84096186  0.75309137    -0.30800
H319        H  0.86880290  0.83593691  0.68146660     0.13400
H320        H  0.87041974  0.83151315  0.53569957     0.14000
C321        C  0.61004529  0.57656666  0.62696310    -0.15600
C322        C  0.63533888  0.59692546  0.58948289    -0.30800
H323        H  0.62204656  0.59023511  0.66087318     0.13400
H324        H  0.62329040  0.58331563  0.55556369     0.14000
C325        C  0.67563756  0.63507871  0.84341425     0.81100
N326        N  0.69679509  0.65567239  0.80353507    -0.77200
C327        C  0.73561260  0.69509924  0.80390633     0.83500
N328        N  0.75350653  0.71424822  0.84499292    -0.77200
C329        C  0.73276116  0.69409240  0.88551131     0.83600
N330        N  0.69373423  0.65442808  0.88447524    -0.78900
C331        C  0.81005403  0.77481554  0.97161296     0.81700
N332        N  0.79604335  0.75661589  0.75878024    -0.77200
C333        C  0.75741221  0.71671653  0.75965190     0.83500
N334        N  0.73198185  0.69533190  0.97100263    -0.77200
C335        C  0.75252494  0.71536250  0.93022737     0.83600
N336        N  0.79161487  0.75514947  0.93084051    -0.78900
C337        C  0.65992760  0.26932176  0.84136483     0.81100
N338        N  0.68033424  0.25142086  0.80115349    -0.77200
C339        C  0.71966935  0.21233570  0.80168030     0.83500
N340        N  0.73852564  0.19134890  0.84253542    -0.77200
C341        C  0.71817478  0.20903277  0.88266966     0.83600
N342        N  0.67904927  0.24796934  0.88197660    -0.78900
C343        C  0.79997840  0.13136473  0.96908085     0.81100
N344        N  0.77971123  0.15017333  0.92805684    -0.77200
C345        C  0.73910072  0.18746515  0.92669950     0.83500
N346        N  0.71866839  0.20599288  0.96645828    -0.77200
C347        C  0.74231484  0.19327649  0.75845276     0.83600
N348        N  0.78270125  0.15538857  0.75914895    -0.78900
C349        C  0.32025444  0.64774986  0.89691404     0.81100
N350        N  0.29930821  0.66740714  0.93614255    -0.77200
C351        C  0.26063445  0.70670431  0.93388575     0.83500
N352        N  0.24290804  0.72639437  0.89251578    -0.77200
C353        C  0.26342568  0.70745460  0.85307574     0.83600
N354        N  0.30225580  0.66781050  0.85507107    -0.78900
C355        C  0.17328978  0.78424453  0.00998710     0.81100
N356        N  0.19643397  0.76455380  0.97190378    -0.77200
C357        C  0.23689893  0.72747938  0.97546824     0.83500
N358        N  0.25463503  0.70981055  0.01745914    -0.77200
C359        C  0.24190621  0.73006073  0.80934573     0.83600
N360        N  0.20142311  0.76745628  0.81010845    -0.78900
O361        O  0.94134343  0.90160339  0.78862360    -0.73600
O362        O  0.04473146  0.01845011  0.78769468    -0.73600
O363        O  0.93608244  0.01356290  0.79185839    -0.73700
O364        O  0.04998849  0.90658927  0.78267949    -0.73700
O365        O  0.04364842  0.90193256  0.98804483    -0.73600
O366        O  0.93158950  0.01181862  0.97356186    -0.73600
O367        O  0.04037000  0.01406893  0.97983625    -0.73600
O368        O  0.93499362  0.89961263  0.97780914    -0.73700
Ni369      Ni  0.99325889  0.95978366  0.79044463     1.25400
Ni370      Ni  0.98794972  0.95672185  0.97709582     1.25400
C371        C  0.91318143  0.88224468  0.01517984     0.88600
C372        C  0.05559024  0.03499010  0.01765779     0.88500
C373        C  0.91493131  0.03399608  0.75461892     0.88600
C374        C  0.06573228  0.89254209  0.74259760     0.88700
O375        O  0.43693972  0.51588418  0.90887152    -0.73600
O376        O  0.53999297  0.39725135  0.91565148    -0.73600
O377        O  0.54539676  0.50958833  0.91340527    -0.73700
O378        O  0.43123828  0.40355626  0.91351335    -0.73700
O379        O  0.43299035  0.40253133  0.83673629    -0.73600
O380        O  0.54829523  0.51001067  0.83660598    -0.73600
O381        O  0.54170420  0.39767693  0.83879736    -0.73600
O382        O  0.43968789  0.51470656  0.83206152    -0.73700
Ni383      Ni  0.48831233  0.45658697  0.91559164     1.25400
Ni384      Ni  0.49075330  0.45616761  0.83332375     1.25400
C385        C  0.42154533  0.53469799  0.86901507     0.88600
C386        C  0.55781813  0.37814487  0.87792825     0.88500
C387        C  0.56559016  0.52755608  0.87545889     0.88600
C388        C  0.41316578  0.38545913  0.87539745     0.88700
C389        C  0.16282720  0.14868172  0.78939982     0.81100
N390        N  0.18195066  0.16643786  0.83046505    -0.77200
C391        C  0.22086170  0.20588376  0.83162923     0.83500
N392        N  0.24071059  0.22746095  0.79134894    -0.77200
C393        C  0.21996187  0.20455014  0.00253346     0.83600
N394        N  0.18070417  0.16505193  0.00488497    -0.78900
C395        C  0.30237947  0.28257770  0.91575640     0.81100
N396        N  0.28202055  0.26319663  0.95657276    -0.77200
C397        C  0.24173568  0.22487788  0.95753791     0.83500
N398        N  0.22181563  0.20603017  0.91699284    -0.77200
C399        C  0.24191361  0.22538975  0.87598730     0.83600
N400        N  0.28200944  0.26347748  0.87574657    -0.78900
C401        C  0.36885054  0.34425524  0.87579161    -0.15600
C402        C  0.34648402  0.32409419  0.91520213    -0.30800
H403        H  0.35445481  0.33008978  0.84272586     0.13400
H404        H  0.36104238  0.33823897  0.94823048     0.14000
C405        C  0.09720612  0.07898577  0.01451458    -0.15600
C406        C  0.11869153  0.10397074  0.05101448    -0.30800
H407        H  0.11107836  0.09081015  0.98020368     0.13400
H408        H  0.10792526  0.08791917  0.82178316     0.14000
C409        C  0.10982273  0.85219623  0.73754917    -0.15600
C410        C  0.13558392  0.82925191  0.77409553    -0.30800
H411        H  0.12144005  0.84144774  0.70293894     0.13400
H412        H  0.11947760  0.83713563  0.96761977     0.14000
C413        C  0.36117900  0.60393198  0.90108788    -0.15600
C414        C  0.38213967  0.57990520  0.86443096    -0.30800
H415        H  0.37361044  0.59036163  0.93560667     0.13400
H416        H  0.36974174  0.59328581  0.82986434     0.14000
C417        C  0.84780034  0.09707391  0.71868865    -0.15600
C418        C  0.87091430  0.07491988  0.75716378    -0.30800
H419        H  0.85841884  0.07643650  0.93630925     0.13400
H420        H  0.85738487  0.08687096  0.79093670     0.14000
C421        C  0.61823244  0.31260758  0.84062702    -0.15600
C422        C  0.59789666  0.33324177  0.87947319    -0.30800
H423        H  0.60462964  0.32853920  0.80711054     0.13400
H424        H  0.61144744  0.31756530  0.91307544     0.14000
C425        C  0.85260159  0.81804681  0.97303880    -0.15600
C426        C  0.87106340  0.83876442  0.01320670    -0.30800
H427        H  0.86889151  0.83323417  0.94044121     0.13400
H428        H  0.86890754  0.82504063  0.78704963     0.14000
C429        C  0.60915444  0.56935736  0.87803461    -0.15600
C430        C  0.63288828  0.59230220  0.84070726    -0.30800
H431        H  0.62162447  0.58202943  0.91211304     0.13400
H432        H  0.62034433  0.57965311  0.80663714     0.14000
loop_ 
_geom_bond_atom_site_label_1 
_geom_bond_atom_site_label_2 
_geom_bond_distance 
_geom_bond_site_symmetry_2 
_ccdc_geom_bond_type 
C1            N2   1.368       .  A
C1            N6   1.354       .  A
C1          C106   1.484       .  S
N2            C3   1.369       .  A
C3            N4   1.363       .  A
C3            C9   1.476       .  S
N4            C5   1.351       .  A
C5            N6   1.355       .  A
C5           C11   1.472       .  S
C7           N12   1.370       .  A
C7          N116   1.357       .  A
C7          C101   1.484       .  S
N8            C9   1.355       .  A
N8          C331   1.351   1_554  A
C9          N334   1.364   1_554  A
N10          C11   1.351       .  A
N10         C117   1.347       .  A
C11          N12   1.368       .  A
C13          N14   1.355       .  A
C13          N18   1.363       .  A
C13          C97   1.480       .  S
N14          C15   1.357       .  A
C15          N16   1.356       .  A
C15          C23   1.470       .  S
N16          C17   1.361       .  A
C17          N18   1.361       .  A
C17          C21   1.473       .  S
C19          N20   1.354       .  A
C19         N132   1.364       .  A
C19         C201   1.485       .  S
N20          C21   1.357       .  A
C21          N22   1.363       .  A
N22         C131   1.363       .  A
C23          N24   1.361       .  A
C23         N346   1.354   1_554  A
N24         C343   1.365   1_554  A
C25          N26   1.363       .  A
C25          N30   1.356       .  A
C25          C89   1.481       .  S
N26          C27   1.363       .  A
C27          N28   1.361       .  A
C27          C33   1.473       .  S
N28          C29   1.354       .  A
C29          N30   1.356       .  A
C29          C35   1.469       .  S
C31          N32   1.351       .  A
C31         N144   1.368       .  A
C31         C194   1.482       .  S
N32          C33   1.352       .  A
C33          N34   1.360       .  A
N34         C143   1.366       .  A
C35          N36   1.367       .  A
C35         N358   1.355       .  A
N36         C355   1.367       .  A
O37         Ni45   1.946       .  S
O37         C371   1.289       .  A
O38         Ni45   1.949   1_445  S
O38         C372   1.289       .  A
O39         Ni45   1.895   1_545  S
O39          C49   1.274       .  A
O40         Ni45   1.898   1_455  S
O40          C50   1.273       .  A
O41         Ni46   1.945   1_455  S
O41         C158   1.290       .  A
O42         Ni46   1.945   1_545  S
O42         C157   1.288       .  A
O43         Ni46   1.899   1_445  S
O43          C48   1.275       .  A
O44         Ni46   1.903       .  S
O44          C47   1.276       .  A
Ni45       Ni370   2.388   1_554  S
Ni46       Ni153   2.388       .  S
C47         C102   1.480       .  S
C47         O145   1.287       .  A
C48          C81   1.476       .  S
C48         O146   1.287       .  A
C49          C94   1.471       .  S
C49         O366   1.287   1_554  A
C50          C85   1.475       .  S
C50         O365   1.288   1_554  A
O51         Ni59   1.906       .  S
O51          C61   1.278       .  A
O52         Ni59   1.905       .  S
O52          C62   1.276       .  A
O53         Ni59   1.942       .  S
O53          C63   1.289       .  A
O54         Ni59   1.942       .  S
O54          C64   1.287       .  A
O55         Ni60   1.905       .  S
O55          C64   1.277       .  A
O56         Ni60   1.910       .  S
O56          C63   1.277       .  A
O57         Ni60   1.935       .  S
O57          C62   1.286       .  A
O58         Ni60   1.935       .  S
O58          C61   1.286       .  A
Ni59        Ni60   2.388       .  S
C61          C90   1.480       .  S
C62          C98   1.476       .  S
C63         C105   1.486       .  S
C64          C77   1.479       .  S
C65          N66   1.357       .  A
C65         N394   1.368       .  A
C65         C406   1.490       .  S
N66          C67   1.357       .  A
C67          N68   1.359       .  A
C67          C75   1.474       .  S
N68         C393   1.361       .  A
C69          N70   1.363       .  A
C69         N176   1.356       .  A
C69          C73   1.472       .  S
N70         C173   1.364       .  A
C71          N72   1.359       .  A
C71          N76   1.362       .  A
C71          C78   1.487       .  S
N72          C73   1.362       .  A
C73          N74   1.358       .  A
N74          C75   1.359       .  A
C75          N76   1.359       .  A
C77          C78   1.344       .  D
C77          H79   1.087       .  S
C78          H80   1.086       .  S
C81          C82   1.339       .  D
C81          H83   1.087       .  S
C82         C173   1.481       .  S
C82         H192   1.087       .  S
H84         C406   1.087       .  S
C85          C86   1.334       .  D
C85          H87   1.087       .  S
C86         C355   1.474       .  S
C86         H412   1.087   1_554  S
H88         C194   1.087       .  S
C89          C90   1.353       .  D
C89          H91   1.086       .  S
C90          H92   1.086       .  S
C93         C343   1.476       .  S
C93          C94   1.337   1_556  D
C93         H419   1.087       .  S
C94          H96   1.087       .  S
H95         C201   1.086       .  S
C97          C98   1.340       .  D
C97          H99   1.087       .  S
C98         H100   1.087       .  S
C101        C102   1.356       .  D
C101        H103   1.086       .  S
C102        H212   1.086       .  S
H104        C426   1.086       .  S
C105        C106   1.340       .  D
C105        H107   1.087       .  S
C106        H108   1.087       .  S
C109        N110   1.353       .  A
C109        N114   1.364       .  A
C109        C214   1.477       .  S
N110        C111   1.354       .  A
C111        N112   1.351       .  A
C111        C117   1.453       .  S
N112        C113   1.353       .  A
C113        N114   1.364       .  A
C113        C119   1.467       .  S
C115        N224   1.364       .  A
C115        N120   1.358       .  A
C115        C209   1.486       .  S
N116        C117   1.352       .  A
N118        C225   1.356       .  A
N118        C119   1.352       .  A
C119        N120   1.360       .  A
C121        N122   1.364       .  A
C121        N126   1.359       .  A
C121        C205   1.484       .  S
N122        C123   1.364       .  A
C123        N124   1.360       .  A
C123        C131   1.485       .  S
N124        C125   1.361       .  A
C125        N126   1.357       .  A
C125        C129   1.473       .  S
C127        N128   1.357       .  A
C127        N240   1.359       .  A
C127        C309   1.474       .  S
N128        C129   1.357       .  A
C129        N130   1.361       .  A
N130        C239   1.361       .  A
C131        N132   1.364       .  A
C133        N134   1.352       .  A
C133        N138   1.362       .  A
C133        C197   1.482       .  S
N134        C135   1.356       .  A
C135        N136   1.366       .  A
C135        C141   1.478       .  S
N136        C137   1.368       .  A
C137        N138   1.365       .  A
C137        C143   1.489       .  S
C139        N140   1.364       .  A
C139        N252   1.354       .  A
C139        C302   1.474       .  S
N140        C141   1.362       .  A
C141        N142   1.365       .  A
N142        C251   1.358       .  A
C143        N144   1.369       .  A
O145       Ni153   1.939       .  S
O146       Ni153   1.940   1_445  S
O147       Ni153   1.902   1_545  S
O147        C157   1.275       .  A
O148       Ni153   1.903   1_455  S
O148        C158   1.275       .  A
O149       Ni154   1.908   1_455  S
O149        C266   1.277       .  A
O150       Ni154   1.907   1_545  S
O150        C265   1.280       .  A
O151       Ni154   1.934   1_445  S
O151        C156   1.285       .  A
O152       Ni154   1.936       .  S
O152        C155   1.286       .  A
Ni154      Ni261   2.388       .  S
C155        C210   1.484       .  S
C155        O253   1.279       .  A
C156        C189   1.484       .  S
C156        O254   1.280       .  A
C157        C202   1.481       .  S
C158        C193   1.483       .  S
O159       Ni167   1.935       .  S
O159        C169   1.286       .  A
O160       Ni167   1.936       .  S
O160        C170   1.286       .  A
O161       Ni167   1.907       .  S
O161        C171   1.277       .  A
O162       Ni167   1.908       .  S
O162        C172   1.279       .  A
O163       Ni168   1.932       .  S
O163        C172   1.285       .  A
O164       Ni168   1.931       .  S
O164        C171   1.286       .  A
O165       Ni168   1.911       .  S
O165        C170   1.279       .  A
O166       Ni168   1.912       .  S
O166        C169   1.278       .  A
Ni167      Ni168   2.388       .  S
C169        C198   1.482       .  S
C170        C206   1.484       .  S
C171        C213   1.477       .  S
C172        C185   1.480       .  S
C173        N174   1.354       .  A
N174        C175   1.357       .  A
C175        N176   1.355       .  A
C175        C183   1.459       .  S
C177        N284   1.355       .  A
C177        N178   1.360       .  A
C177        C181   1.468       .  S
N178        C281   1.358       .  A
C179        N180   1.363       .  A
C179        N184   1.359       .  A
C179        C186   1.480       .  S
N180        C181   1.362       .  A
C181        N182   1.352       .  A
N182        C183   1.352       .  A
C183        N184   1.357       .  A
C185        C186   1.351       .  D
C185        H187   1.086       .  S
C186        H188   1.087       .  S
C189        C190   1.352       .  D
C189        H191   1.086       .  S
C190        C281   1.485       .  S
C190        H300   1.086       .  S
C193        C194   1.337       .  D
C193        H195   1.087       .  S
H196        C302   1.087       .  S
C197        C198   1.341       .  D
C197        H199   1.087       .  S
C198        H200   1.087       .  S
C201        C202   1.340       .  D
C202        H204   1.087       .  S
H203        C309   1.087       .  S
C205        C206   1.353       .  D
C205        H207   1.086       .  S
C206        H208   1.086       .  S
C209        C210   1.345       .  D
C209        H211   1.087       .  S
C210        H320   1.087       .  S
C213        C214   1.339       .  D
C213        H215   1.087       .  S
C214        H216   1.087       .  S
C217        N218   1.356       .  A
C217        N222   1.363       .  A
C217        C322   1.482       .  S
N218        C219   1.358       .  A
C219        N220   1.356       .  A
C219        C225   1.470       .  S
N220        C221   1.360       .  A
C221        N222   1.363       .  A
C221        C227   1.474       .  S
C223        N332   1.363       .  A
C223        N228   1.356       .  A
C223        C317   1.480       .  S
N224        C225   1.364       .  A
N226        C333   1.363       .  A
N226        C227   1.360       .  A
C227        N228   1.357       .  A
C229        N230   1.360       .  A
C229        N234   1.358       .  A
C229        C313   1.477       .  S
N230        C231   1.360       .  A
C231        N232   1.359       .  A
C231        C239   1.472       .  S
N232        C233   1.358       .  A
C233        N234   1.358       .  A
C233        C237   1.468       .  S
C235        N236   1.359       .  A
C235        N348   1.360       .  A
C235        C417   1.478       .  S
N236        C237   1.359       .  A
C237        N238   1.356       .  A
N238        C347   1.356       .  A
C239        N240   1.359       .  A
C241        N242   1.353       .  A
C241        N246   1.364       .  A
C241        C305   1.477       .  S
N242        C243   1.354       .  A
C243        N244   1.356       .  A
C243        C249   1.468       .  S
N244        C245   1.361       .  A
C245        N246   1.364       .  A
C245        C251   1.474       .  S
C247        N248   1.363       .  A
C247        N360   1.353       .  A
C247        C410   1.479       .  S
N248        C249   1.365       .  A
C249        N250   1.359       .  A
N250        C359   1.352       .  A
C251        N252   1.354       .  A
O253       Ni261   1.916       .  S
O254       Ni261   1.916   1_445  S
O255       Ni261   1.926   1_545  S
O255        C265   1.282       .  A
O256       Ni261   1.925   1_455  S
O256        C266   1.285       .  A
O257       Ni262   1.912   1_455  S
O257        C374   1.278       .  A
O258       Ni262   1.910   1_545  S
O258        C373   1.280       .  A
O259       Ni262   1.929   1_445  S
O259        C264   1.284       .  A
O260       Ni262   1.930       .  S
O260        C263   1.285       .  A
Ni262      Ni369   2.388       .  S
C263        C318   1.478       .  S
C263        O361   1.278       .  A
C264        C297   1.480       .  S
C264        O362   1.280       .  A
C265        C310   1.477       .  S
C266        C301   1.476       .  S
O267       Ni275   1.930       .  S
O267        C277   1.286       .  A
O268       Ni275   1.930       .  S
O268        C278   1.284       .  A
O269       Ni275   1.911       .  S
O269        C279   1.278       .  A
O270       Ni275   1.914       .  S
O270        C280   1.279       .  A
O271       Ni276   1.933       .  S
O271        C280   1.285       .  A
O272       Ni276   1.934       .  S
O272        C279   1.286       .  A
O273       Ni276   1.907       .  S
O273        C278   1.279       .  A
O274       Ni276   1.909       .  S
O274        C277   1.277       .  A
Ni275      Ni276   2.388       .  S
C277        C306   1.478       .  S
C278        C314   1.479       .  S
C279        C321   1.480       .  S
C280        C293   1.483       .  S
C281        N282   1.361       .  A
N282        C283   1.363       .  A
C283        N284   1.358       .  A
C283        C291   1.470       .  S
C285        N392   1.359       .  A
C285        N286   1.359       .  A
C285        C289   1.476       .  S
N286        C389   1.359       .  A
C287        N288   1.363       .  A
C287        N292   1.358       .  A
C287        C294   1.484       .  S
N288        C289   1.363       .  A
C289        N290   1.359       .  A
N290        C291   1.357       .  A
C291        N292   1.358       .  A
C293        C294   1.352       .  D
C293        H295   1.086       .  S
C294        H296   1.086       .  S
C297        C298   1.349       .  D
C297        H299   1.086       .  S
C298        C389   1.480       .  S
C298        H408   1.087       .  S
C301        C302   1.339       .  D
C301        H303   1.087       .  S
H304        C410   1.087       .  S
C305        C306   1.339       .  D
C305        H307   1.087       .  S
C306        H308   1.087       .  S
C309        C310   1.346       .  D
C310        H312   1.086       .  S
H311        C417   1.087       .  S
C313        C314   1.349       .  D
C313        H315   1.087       .  S
C314        H316   1.086       .  S
C317        C318   1.342       .  D
C317        H319   1.087       .  S
C318        H428   1.087       .  S
C321        C322   1.342       .  D
C321        H323   1.087       .  S
C322        H324   1.087       .  S
C325        N326   1.357       .  A
C325        N330   1.366       .  A
C325        C430   1.487       .  S
N326        C327   1.358       .  A
C327        N328   1.363       .  A
C327        C333   1.479       .  S
N328        C329   1.365       .  A
C329        N330   1.366       .  A
C329        C335   1.489       .  S
C331        N336   1.364       .  A
C331        C425   1.489       .  S
N332        C333   1.362       .  A
N334        C335   1.368       .  A
C335        N336   1.369       .  A
C337        N338   1.359       .  A
C337        N342   1.355       .  A
C337        C421   1.474       .  S
N338        C339   1.361       .  A
C339        N340   1.356       .  A
C339        C347   1.467       .  S
N340        C341   1.355       .  A
C341        N342   1.355       .  A
C341        C345   1.457       .  S
C343        N344   1.355       .  A
N344        C345   1.355       .  A
C345        N346   1.353       .  A
C347        N348   1.360       .  A
C349        N350   1.355       .  A
C349        N354   1.366       .  A
C349        C413   1.472       .  S
N350        C351   1.353       .  A
C351        N352   1.349       .  A
C351        C357   1.451       .  S
N352        C353   1.350       .  A
C353        N354   1.362       .  A
C353        C359   1.464       .  S
C355        N356   1.350   1_554  A
N356        C357   1.350       .  A
C357        N358   1.350   1_556  A
C359        N360   1.355       .  A
O361       Ni369   1.912       .  S
O362       Ni369   1.912   1_445  S
O363       Ni369   1.930   1_545  S
O363        C373   1.283       .  A
O364       Ni369   1.930   1_455  S
O364        C374   1.286       .  A
O365       Ni370   1.936   1_455  S
O366       Ni370   1.936   1_545  S
O367       Ni370   1.907   1_445  S
O367        C372   1.276   1_556  A
O368       Ni370   1.909       .  S
O368        C371   1.277   1_556  A
C371        C426   1.487       .  S
C372        C405   1.486       .  S
C373        C418   1.481       .  S
C374        C409   1.480       .  S
O375       Ni383   1.926       .  S
O375        C385   1.285       .  A
O376       Ni383   1.927       .  S
O376        C386   1.283       .  A
O377       Ni383   1.914       .  S
O377        C387   1.279       .  A
O378       Ni383   1.916       .  S
O378        C388   1.280       .  A
O379       Ni384   1.938       .  S
O379        C388   1.286       .  A
O380       Ni384   1.939       .  S
O380        C387   1.287       .  A
O381       Ni384   1.902       .  S
O381        C386   1.278       .  A
O382       Ni384   1.902       .  S
O382        C385   1.276       .  A
Ni383      Ni384   2.389       .  S
C385        C414   1.471       .  S
C386        C422   1.474       .  S
C387        C429   1.485       .  S
C388        C401   1.486       .  S
C389        N390   1.361       .  A
N390        C391   1.360       .  A
C391        N392   1.362       .  A
C391        C399   1.476       .  S
C393        N394   1.367       .  A
C393        C397   1.488   1_554  S
C395        N396   1.362       .  A
C395        N400   1.356       .  A
C395        C402   1.488       .  S
N396        C397   1.365       .  A
C397        N398   1.364       .  A
N398        C399   1.365       .  A
C399        N400   1.358       .  A
C401        C402   1.354       .  D
C401        H403   1.086       .  S
C402        H404   1.086       .  S
C405        C406   1.342       .  D
C405        H407   1.087   1_554  S
C409        C410   1.341       .  D
C409        H411   1.086       .  S
C413        C414   1.337       .  D
C413        H415   1.087       .  S
C414        H416   1.087       .  S
C417        C418   1.348       .  D
C418        H420   1.086       .  S
C421        C422   1.349       .  D
C421        H423   1.087       .  S
C422        H424   1.086       .  S
C425        C426   1.359   1_556  D
C425        H427   1.086       .  S
C429        C430   1.343       .  D
C429        H431   1.087       .  S
C430        H432   1.087       .  S
