geometry optimzed in LAMMPS
_audit_creation_date              2020-11-30 
_audit_creation_method            'lammps2cif' 
_symmetry_space_group_name_H-M    'P1' 
_symmetry_Int_Tables_number       1 
_symmetry_cell_setting            triclinic 
loop_ 
_symmetry_equiv_pos_as_xyz 
  x,y,z 
_cell_length_a                    43.53603279 
_cell_length_b                    43.499688215944246 
_cell_length_c                    46.50389172049214 
_cell_angle_alpha                 89.99691022093283 
_cell_angle_beta                  90.00210225880093 
_cell_angle_gamma                 120.14112187694458 
loop_ 
_atom_site_label 
_atom_site_type_symbol 
_atom_site_fract_x 
_atom_site_fract_y 
_atom_site_fract_z 
_atom_site_charge 
O1          O  0.47006545  0.06627191  0.29896470    -0.74000
O2          O  0.48520595  0.03732840  0.33205714    -0.52900
C3          C  0.47373927  0.05825883  0.32488701     0.79700
O4          O  0.40322206  0.93261016  0.20097095    -0.58600
O5          O  0.44677794  0.96344613  0.16779553    -0.51600
C6          C  0.41458580  0.94153247  0.17502869     0.71800
O7          O  0.40274432  0.93437164  0.29837003    -0.73100
O8          O  0.44678608  0.96314111  0.33161106    -0.53700
C9          C  0.41430335  0.94251336  0.32431803     0.77800
O10         O  0.47189370  0.06874318  0.20163870    -0.58300
O11         O  0.48413688  0.03781737  0.16826385    -0.51400
C12         C  0.47433468  0.06001233  0.17563401     0.74400
Zr13       Zr  0.48128085  0.05325043  0.25020579     2.54700
O14         O  0.42650886  0.05544636  0.25028655    -0.78900
O15         O  0.51741400  0.11781770  0.25045392    -0.92300
Zr16       Zr  0.42760465  0.94689713  0.24980828     2.64700
O17         O  0.36983093  0.94309743  0.25052219    -0.97200
O18         O  0.39965146  0.88236173  0.24965574    -0.79300
O19         O  0.45414528  0.99995288  0.27737018    -0.82600
O20         O  0.45368683  0.00024249  0.22273111    -2.17400
O21         O  0.59648462  0.06884623  0.20108791    -0.66000
O22         O  0.55274577  0.03846117  0.16794743    -0.50600
C23         C  0.58494651  0.06043144  0.17516014     0.72700
O24         O  0.53194143  0.93457729  0.29799152    -0.58900
O25         O  0.51617632  0.96244685  0.33158892    -0.50900
C26         C  0.52835259  0.94221694  0.32408093     0.74500
O27         O  0.52847711  0.93216069  0.20079155    -0.70300
O28         O  0.51504345  0.96257055  0.16779969    -0.49000
C29         C  0.52553794  0.94081410  0.17489184     0.75900
O30         O  0.59776313  0.06578210  0.29813097    -0.65700
O31         O  0.55409414  0.03610586  0.33146266    -0.52900
C32         C  0.58647337  0.05715492  0.32409765     0.74300
Zr33       Zr  0.57230554  0.05308917  0.24979678     2.77500
O34         O  0.63032514  0.05740784  0.24982101    -0.96400
O35         O  0.59897913  0.11744101  0.25119862    -0.77200
Zr36       Zr  0.51845061  0.94652894  0.24950912     2.70100
O37         O  0.57091731  0.94027318  0.24813355    -0.78500
O38         O  0.47981146  0.88224721  0.25084079    -0.97600
Zr39       Zr  0.50029107  0.99975116  0.30447937     2.21500
Zr40       Zr  0.49984878  0.00027837  0.19522848     2.11100
O41         O  0.54608582  0.99995686  0.22237245    -2.46300
O42         O  0.54611718  0.99966844  0.27687180    -0.78300
O43         O  0.52720747  0.05428477  0.22191745    -0.70500
O44         O  0.47260674  0.94555984  0.27783233    -2.31400
O45         O  0.52744527  0.05408250  0.27809332    -2.27600
O46         O  0.47249548  0.94588150  0.22146809    -0.72200
H47         H  0.43581291  0.00042429  0.21056293     0.79800
H48         H  0.46245545  0.92522314  0.29051829     0.80900
H49         H  0.56394287  0.00003535  0.21001253     0.83100
H50         H  0.53779173  0.07434392  0.29085421     0.80700
H51         H  0.40471375  0.87625485  0.26891353     0.43700
H52         H  0.46567364  0.87649080  0.23293137     0.42700
H53         H  0.59095655  0.96491636  0.24603052     0.42400
H54         H  0.62898700  0.04109605  0.23439117     0.40300
H55         H  0.58919941  0.12319410  0.23413700     0.43400
H56         H  0.52952668  0.12377206  0.26934748     0.38200
H57         H  0.40752931  0.03039095  0.24771876     0.44300
H58         H  0.37071190  0.95870102  0.23465772     0.40700
H59         H  0.64689445  0.08151880  0.24236606     0.45700
H60         H  0.49999998  0.12605677  0.25186012     0.44400
H61         H  0.35289845  0.91868235  0.24387500     0.44500
H62         H  0.49597842  0.87274351  0.24765835     0.44900
O63         O  0.06470963  0.59753359  0.29848453    -0.74000
O64         O  0.03674153  0.55360244  0.33195721    -0.52900
C65         C  0.05670132  0.58614954  0.32447359     0.79700
O66         O  0.93282598  0.52994842  0.20186871    -0.58600
O67         O  0.96302904  0.51654369  0.16864979    -0.51600
C68         C  0.94134753  0.52705475  0.17590314     0.71800
O69         O  0.93422918  0.53113833  0.29922048    -0.73100
O70         O  0.96270023  0.51544798  0.33232715    -0.53700
C71         C  0.94196514  0.52716077  0.32516125     0.77800
O72         O  0.06980344  0.59642547  0.20170986    -0.58300
O73         O  0.03865260  0.55297497  0.16850961    -0.51400
C74         C  0.06118422  0.58500166  0.17577051     0.74400
Zr75       Zr  0.05403963  0.57197265  0.25028483     2.54700
O76         O  0.06231997  0.63155199  0.24777098    -0.78900
O77         O  0.11799486  0.59632101  0.25279993    -0.92300
Zr78       Zr  0.94788583  0.52030020  0.25052576     2.64700
O79         O  0.94786588  0.57631567  0.25138535    -0.97200
O80         O  0.88328418  0.48533273  0.25124829    -0.79300
O81         O  0.00102689  0.54663309  0.27780098    -0.82600
O82         O  0.00091985  0.54681990  0.22302529    -2.17400
O83         O  0.06760391  0.47073679  0.20128226    -0.66000
O84         O  0.03706088  0.48387305  0.16821618    -0.50600
C85         C  0.05897826  0.47358792  0.17533581     0.72700
O86         O  0.93582166  0.40232390  0.29835287    -0.58900
O87         O  0.96380722  0.44610587  0.33192325    -0.50900
C88         C  0.94388666  0.41355114  0.32438240     0.74500
O89         O  0.92980992  0.40403200  0.20160591    -0.70300
O90         O  0.96146232  0.44733582  0.16843396    -0.49000
C91         C  0.93856538  0.41541137  0.17566054     0.75900
O92         O  0.06665086  0.46949259  0.29862328    -0.65700
O93         O  0.03811351  0.48470933  0.33203988    -0.52900
C94         C  0.05898386  0.47324361  0.32463952     0.74300
Zr95       Zr  0.05273004  0.48035515  0.25006832     2.77500
O96         O  0.05490443  0.42551879  0.25125557    -0.96400
O97         O  0.11720961  0.51698324  0.25061426    -0.77200
Zr98       Zr  0.94636725  0.42825550  0.25024763     2.70100
O99         O  0.93904489  0.36904343  0.24752847    -0.78500
O100        O  0.88239955  0.40339905  0.25350777    -0.97600
Zr101      Zr  0.00022193  0.49996611  0.30497992     2.21500
Zr102      Zr  0.00007853  0.50012825  0.19563125     2.11100
O103        O  0.99943133  0.45346895  0.22286802    -2.46300
O104        O  0.99960301  0.45366640  0.27745861    -0.78300
O105        O  0.05428172  0.52670003  0.22197960    -0.70500
O106        O  0.94609915  0.47360320  0.27843208    -2.31400
O107        O  0.05432470  0.52659438  0.27835999    -2.27600
O108        O  0.94609899  0.47382490  0.22232304    -0.72200
H109        H  0.00132364  0.56492378  0.21075423     0.79800
H110        H  0.92583862  0.46346278  0.29117559     0.80900
H111        H  0.99901288  0.43540822  0.21053406     0.83100
H112        H  0.07461732  0.53660578  0.29106803     0.80700
H113        H  0.87735950  0.47210878  0.26964476     0.43700
H114        H  0.87677284  0.41535565  0.23797378     0.42700
H115        H  0.96255710  0.37314847  0.24128156     0.42400
H116        H  0.03651907  0.40959192  0.23738100     0.40300
H117        H  0.12322885  0.53018227  0.23220212     0.43400
H118        H  0.12312360  0.59582719  0.27348173     0.38200
H119        H  0.03790430  0.62773917  0.24797699     0.44300
H120        H  0.96520387  0.59116616  0.23644223     0.40700
H121        H  0.07775379  0.43156868  0.24201617     0.45700
H122        H  0.12820143  0.62187299  0.24832478     0.44400
H123        H  0.92446521  0.57054006  0.24343698     0.44500
H124        H  0.87223759  0.37856489  0.24679235     0.44900
O125        O  0.40301661  0.46915300  0.29916248    -0.74000
O126        O  0.44672194  0.48374682  0.33254741    -0.52900
C127        C  0.41432486  0.47206615  0.32512554     0.79700
O128        O  0.47026590  0.40295013  0.20173338    -0.58600
O129        O  0.48335856  0.44667172  0.16865127    -0.51600
C130        C  0.47316854  0.41446289  0.17581210     0.71800
O131        O  0.46590533  0.40178186  0.29871629    -0.73100
O132        O  0.48258733  0.44573087  0.33227927    -0.53700
C133        C  0.46971293  0.41313270  0.32474561     0.77800
O134        O  0.40369319  0.47371418  0.20240203    -0.58300
O135        O  0.44689581  0.48594266  0.16904609    -0.51400
C136        C  0.41496481  0.47647402  0.17642031     0.74400
Zr137      Zr  0.42837798  0.48245714  0.25088923     2.54700
O138        O  0.36938776  0.42998993  0.25001243    -0.78900
O139        O  0.40358933  0.52166519  0.25254077    -0.92300
Zr140      Zr  0.47933302  0.42727800  0.25046644     2.64700
O141        O  0.42503566  0.36947419  0.25013867    -0.97200
O142        O  0.51679648  0.40054547  0.25237360    -0.79300
O143        O  0.45345874  0.45433959  0.27796804    -0.82600
O144        O  0.45288612  0.45407467  0.22336212    -2.17400
O145        O  0.52866180  0.59659326  0.20198657    -0.66000
O146        O  0.51567588  0.55309568  0.16872017    -0.50600
C147        C  0.52573487  0.58521851  0.17601539     0.72700
O148        O  0.59709709  0.53126303  0.29886958    -0.58900
O149        O  0.55356612  0.51628383  0.33249052    -0.50900
C150        C  0.58597395  0.52833065  0.32493107     0.74500
O151        O  0.59556287  0.52573668  0.20174291    -0.70300
O152        O  0.55240475  0.51462327  0.16863012    -0.49000
C153        C  0.58427090  0.52357004  0.17580850     0.75900
O154        O  0.53381768  0.59752994  0.29918506    -0.65700
O155        O  0.51789412  0.55358007  0.33263165    -0.52900
C156        C  0.53047664  0.58615110  0.32518014     0.74300
Zr157      Zr  0.52047175  0.57245446  0.25074919     2.77500
O158        O  0.57537534  0.62966216  0.24978980    -0.96400
O159        O  0.48498687  0.60135491  0.25254007    -0.77200
Zr160      Zr  0.57143236  0.51730082  0.25052955     2.70100
O161        O  0.63041491  0.56963257  0.24833567    -0.78500
O162        O  0.59648611  0.47842324  0.25361266    -0.97600
Zr163      Zr  0.50008437  0.49978637  0.30550285     2.21500
Zr164      Zr  0.49969117  0.49993914  0.19600111     2.11100
O165        O  0.54665438  0.54568135  0.22333593    -2.46300
O166        O  0.54659914  0.54539541  0.27793789    -0.78300
O167        O  0.47382011  0.52796115  0.22264015    -0.70500
O168        O  0.52592004  0.47171831  0.27874168    -2.31400
O169        O  0.47404015  0.52793955  0.27910179    -2.27600
O170        O  0.52580984  0.47184291  0.22224018    -0.72200
H171        H  0.43471930  0.43637726  0.21109137     0.79800
H172        H  0.53576064  0.46121490  0.29136528     0.80900
H173        H  0.56472848  0.56341442  0.21102671     0.83100
H174        H  0.46438708  0.53845622  0.29189733     0.80700
H175        H  0.50239025  0.37692834  0.24329246     0.43700
H176        H  0.58919316  0.46462598  0.23548729     0.42700
H177        H  0.62621627  0.58985057  0.25072013     0.42400
H178        H  0.58928369  0.62793802  0.23366387     0.40300
H179        H  0.46528236  0.58770163  0.23888838     0.43400
H180        H  0.40737415  0.53057530  0.27256167     0.38200
H181        H  0.37379581  0.40979122  0.25107983     0.44300
H182        H  0.41063690  0.37073539  0.23419282     0.40700
H183        H  0.56822045  0.64677747  0.24310140     0.45700
H184        H  0.37760973  0.50546835  0.25106846     0.44400
H185        H  0.43245011  0.35258715  0.24338307     0.44500
H186        H  0.62240523  0.49459265  0.25152537     0.44900
O187        O  0.78832438  0.47569641  0.99694254    -0.74000
O188        O  0.84668176  0.51936014  0.99841408    -0.52900
C189        C  0.82229678  0.48702289  0.49761158     0.79700
O190        O  0.73468569  0.57381859  0.41979257    -0.58600
O191        O  0.69871901  0.57404231  0.45547524    -0.51600
C192        C  0.70626686  0.57267176  0.42896717     0.71800
O193        O  0.83556246  0.56909593  0.42023821    -0.73100
O194        O  0.87318598  0.57154318  0.45558732    -0.53700
C195        C  0.86304224  0.56822780  0.42927785     0.77800
O196        O  0.68560871  0.47664059  0.00065756    -0.58300
O197        O  0.67170057  0.52082879  0.49974580    -0.51400
C198        C  0.66346744  0.48802189  0.50041264     0.74400
Zr199      Zr  0.74966760  0.50116344  0.99905897     2.54700
O200        O  0.72626888  0.45722085  0.46065149    -0.78900
O201        O  0.72720939  0.45553456  0.03621754    -0.92300
Zr202      Zr  0.78831815  0.57758500  0.43989048     2.64700
O203        O  0.76864661  0.53789424  0.39852161    -0.97200
O204        O  0.81604824  0.63002546  0.40919022    -0.79300
O205        O  0.79826276  0.53871281  0.46904512    -0.82600
O206        O  0.73917546  0.53868549  0.46895330    -2.17400
O207        O  0.73150324  0.56552554  0.07988553    -0.66000
O208        O  0.69738802  0.57025853  0.04477220    -0.50600
C209        C  0.70352769  0.56542843  0.07092320     0.72700
O210        O  0.89019592  0.67541032  0.50182125    -0.58900
O211        O  0.90283808  0.63031313  0.50124701    -0.50900
C212        C  0.91203426  0.66262635  0.00169714     0.74500
O213        O  0.78599525  0.67601008  0.50019125    -0.70300
O214        O  0.72793641  0.63132574  0.50052102    -0.49000
C215        C  0.75264529  0.66441680  0.00091129     0.75900
O216        O  0.83624230  0.56915753  0.08036774    -0.65700
O217        O  0.87307123  0.57089047  0.04461098    -0.52900
C218        C  0.86367152  0.56839704  0.07110037     0.74300
Zr219      Zr  0.78744336  0.57468626  0.06035653     2.77500
O220        O  0.81239966  0.62554119  0.09269474    -0.96400
O221        O  0.76801528  0.53476204  0.10155541    -0.77200
Zr222      Zr  0.82542602  0.65073263  0.50095075     2.70100
O223        O  0.84668774  0.69468263  0.03949315    -0.78500
O224        O  0.84956052  0.69588448  0.46344767    -0.97600
Zr225      Zr  0.84642348  0.57518704  0.50010678     2.21500
Zr226      Zr  0.72845796  0.57585882  0.50007895     2.11100
O227        O  0.77677793  0.61324848  0.03140100    -2.46300
O228        O  0.83673628  0.61283621  0.03121301    -0.78300
O229        O  0.73879328  0.53763162  0.03020352    -0.70500
O230        O  0.83713780  0.61428805  0.46995736    -2.31400
O231        O  0.79753736  0.53662461  0.03023588    -2.27600
O232        O  0.77693609  0.61476116  0.46998933    -0.72200
H233        H  0.71876385  0.52402825  0.45707382     0.79800
H234        H  0.85783502  0.62873170  0.45827621     0.80900
H235        H  0.77058765  0.62737430  0.04349929     0.83100
H236        H  0.80283776  0.52130994  0.04163553     0.80700
H237        H  0.83891080  0.63222724  0.40325789     0.43700
H238        H  0.82889666  0.69082083  0.45125215     0.42700
H239        H  0.85648229  0.68543327  0.05414353     0.42400
H240        H  0.79275382  0.63031153  0.09623913     0.40300
H241        H  0.75654282  0.51066653  0.09300677     0.43400
H242        H  0.74836799  0.46012128  0.04751898     0.38200
H243        H  0.73888377  0.47061971  0.44317587     0.44300
H244        H  0.74322935  0.52071640  0.40213247     0.40700
H245        H  0.81536453  0.61604065  0.11118613     0.45700
H246        H  0.72030134  0.43316818  0.02574370     0.44400
H247        H  0.76871151  0.55262463  0.38226253     0.44500
H248        H  0.85564222  0.71832569  0.47346625     0.44900
O249        O  0.68595397  0.20977635  0.99602349    -0.74000
O250        O  0.67155684  0.15157367  0.99832262    -0.52900
C251        C  0.66369515  0.17612427  0.49660431     0.79700
O252        O  0.83853985  0.26472637  0.41883855    -0.58600
O253        O  0.87460172  0.30102855  0.45451204    -0.51600
C254        C  0.86589380  0.29318367  0.42799002     0.71800
O255        O  0.73430182  0.16263947  0.41924190    -0.73100
O256        O  0.69868004  0.12583296  0.45489041    -0.53700
C257        C  0.70597540  0.13519337  0.42843496     0.77800
O258        O  0.78924533  0.31379396  0.99835230    -0.58300
O259        O  0.84739352  0.32817207  0.49826388    -0.51400
C260        C  0.82266102  0.33613063  0.49797004     0.74400
Zr261      Zr  0.75006826  0.24950421  0.99878148     2.54700
O262        O  0.72819333  0.27101881  0.45982745    -0.78900
O263        O  0.72748210  0.27026478  0.03763931    -0.92300
Zr264      Zr  0.78851798  0.21149159  0.43927490     2.64700
O265        O  0.76704462  0.23122417  0.39892689    -0.97200
O266        O  0.81354405  0.18528431  0.40744595    -0.79300
O267        O  0.73951420  0.20097837  0.46846137    -0.82600
O268        O  0.79845924  0.26054493  0.46818792    -2.17400
O269        O  0.83345417  0.26892817  0.07919623    -0.66000
O270        O  0.87205913  0.30333914  0.04397040    -0.50600
C271        C  0.86124085  0.29705623  0.07016972     0.72700
O272        O  0.78505639  0.11022328  0.50202814    -0.58900
O273        O  0.72712287  0.09697024  0.50102771    -0.50900
C274        C  0.75118899  0.08841798  0.00209626     0.74500
O275        O  0.88974295  0.21499853  0.50001971    -0.70300
O276        O  0.90274930  0.27291971  0.50032180    -0.49000
C277        C  0.91154239  0.24903114  0.00055892     0.75900
O278        O  0.73330376  0.16337606  0.07994480    -0.65700
O279        O  0.69758290  0.12652739  0.04437514    -0.52900
C280        C  0.70487662  0.13598597  0.07081601     0.74300
Zr281      Zr  0.78712964  0.21268097  0.05970301     2.77500
O282        O  0.81488741  0.18956351  0.09188108    -0.96400
O283        O  0.76480749  0.23027920  0.10072407    -0.77200
Zr284      Zr  0.82497786  0.17509048  0.50056911     2.70100
O285        O  0.84875971  0.15378181  0.03776843    -0.78500
O286        O  0.84570701  0.15171190  0.46238005    -0.97600
Zr287      Zr  0.72829650  0.15314268  0.49965220     2.21500
Zr288      Zr  0.84648733  0.27183678  0.49929722     2.11100
O289        O  0.83634199  0.22407817  0.03055199    -2.46300
O290        O  0.77600586  0.16337372  0.03069680    -0.78300
O291        O  0.79796945  0.26122637  0.02967332    -0.70500
O292        O  0.77680462  0.16292963  0.46951983    -2.31400
O293        O  0.73854960  0.20186776  0.02984203    -2.27600
O294        O  0.83710118  0.22331656  0.46946864    -0.72200
H295        H  0.80415742  0.28083558  0.45618060     0.79800
H296        H  0.77072119  0.14222758  0.45790725     0.80900
H297        H  0.85681773  0.23061274  0.04256355     0.83100
H298        H  0.71793434  0.19626352  0.04135897     0.80700
H299        H  0.80021152  0.18096771  0.38922900     0.43700
H300        H  0.86122935  0.17263205  0.45034263     0.42700
H301        H  0.84624732  0.16444985  0.05576794     0.42400
H302        H  0.83941487  0.20955326  0.09463862     0.40300
H303        H  0.75117438  0.24055216  0.09206742     0.43400
H304        H  0.71005401  0.24848499  0.04792114     0.38200
H305        H  0.73690176  0.26549889  0.44200121     0.44300
H306        H  0.77473825  0.25638161  0.40315020     0.40700
H307        H  0.80317506  0.18714326  0.11066288     0.45700
H308        H  0.71287382  0.27870054  0.02785794     0.44400
H309        H  0.78181829  0.23222232  0.38236871     0.44500
H310        H  0.86217959  0.14557672  0.47205941     0.44900
O311        O  0.31432611  0.78917490  0.99587646    -0.74000
O312        O  0.32862345  0.84739094  0.99726187    -0.52900
C313        C  0.33647099  0.82275569  0.49610051     0.79700
O314        O  0.16148048  0.73447792  0.41890878    -0.58600
O315        O  0.12564745  0.69818433  0.45470520    -0.51600
C316        C  0.13421438  0.70602256  0.42817029     0.71800
O317        O  0.26633143  0.83626810  0.41901913    -0.73100
O318        O  0.30188618  0.87310491  0.45470106    -0.53700
C319        C  0.29466141  0.86368341  0.42826382     0.77800
O320        O  0.21105421  0.68552062  0.99822752    -0.58300
O321        O  0.15269825  0.67127541  0.49821198    -0.51400
C322        C  0.17733889  0.66320579  0.49844872     0.74400
Zr323      Zr  0.25024946  0.74976428  0.99806138     2.54700
O324        O  0.27167411  0.72758167  0.45992871    -0.78900
O325        O  0.27276284  0.72715113  0.03552580    -0.92300
Zr326      Zr  0.21205211  0.78746836  0.43903482     2.64700
O327        O  0.23391282  0.76565704  0.40038713    -0.97200
O328        O  0.18806334  0.81314549  0.40561604    -0.79300
O329        O  0.26095954  0.79815956  0.46834242    -0.82600
O330        O  0.20175947  0.73851821  0.46818745    -2.17400
O331        O  0.16735232  0.73149102  0.07954611    -0.66000
O332        O  0.12894162  0.69673370  0.04434904    -0.50600
C333        C  0.13959491  0.70331176  0.07057016     0.72700
O334        O  0.21512053  0.88905280  0.50226021    -0.58900
O335        O  0.27298934  0.90221260  0.50062346    -0.50900
C336        C  0.24922919  0.91099504  0.00178085     0.74500
O337        O  0.11072638  0.78447611  0.50074154    -0.70300
O338        O  0.09758470  0.72653603  0.49985852    -0.49000
C339        C  0.08896553  0.75033207  0.00070046     0.75900
O340        O  0.26800386  0.83698324  0.07921063    -0.65700
O341        O  0.30347165  0.87338730  0.04333126    -0.52900
C342        C  0.29629141  0.86437527  0.06985870     0.74300
Zr343      Zr  0.21418792  0.78700272  0.05949748     2.77500
O344        O  0.18740625  0.81032053  0.09247815    -0.96400
O345        O  0.23697489  0.76816773  0.09942439    -0.77200
Zr346      Zr  0.17550518  0.82429472  0.50016846     2.70100
O347        O  0.15281595  0.84668164  0.03802399    -0.78500
O348        O  0.15464757  0.84663173  0.46129803    -0.97600
Zr349      Zr  0.27225522  0.84602260  0.99909960     2.21500
Zr350      Zr  0.15386311  0.72765664  0.49931443     2.11100
O351        O  0.16458262  0.77558917  0.03078205    -2.46300
O352        O  0.22483708  0.83610044  0.03044693    -0.78300
O353        O  0.20287716  0.73836562  0.02942706    -0.70500
O354        O  0.22365572  0.83621687  0.46911132    -2.31400
O355        O  0.26230254  0.79755743  0.02919298    -2.27600
O356        O  0.16350766  0.77603926  0.46918499    -0.72200
H357        H  0.19596944  0.71811913  0.45628817     0.79800
H358        H  0.22978153  0.85689559  0.45745107     0.80900
H359        H  0.14424254  0.76912569  0.04294499     0.83100
H360        H  0.28302850  0.80319118  0.04057655     0.80700
H361        H  0.18986550  0.80408913  0.38652818     0.43700
H362        H  0.14227559  0.82625950  0.44796812     0.42700
H363        H  0.16432561  0.84518696  0.05590744     0.42400
H364        H  0.16292767  0.79039890  0.09560007     0.40300
H365        H  0.24634105  0.75397572  0.09029734     0.43400
H366        H  0.29039881  0.74848367  0.04616549     0.38200
H367        H  0.27977282  0.74604877  0.44479090     0.44300
H368        H  0.22646987  0.74086057  0.40578813     0.40700
H369        H  0.19961469  0.81278220  0.11101789     0.45700
H370        H  0.28710857  0.71889320  0.02507817     0.44400
H371        H  0.21909578  0.76342959  0.38348783     0.44500
H372        H  0.13541390  0.84938226  0.47001515     0.44900
O373        O  0.56959837  0.83561417  0.41952681    -0.74000
O374        O  0.57193664  0.87312372  0.45495965    -0.52900
C375        C  0.56900147  0.86324979  0.42856659     0.79700
O376        O  0.47663469  0.68517614  0.99968948    -0.58600
O377        O  0.52111858  0.67149765  0.49965679    -0.51600
C378        C  0.48825924  0.66297547  0.49984319     0.71800
O379        O  0.47571185  0.78811897  0.99715218    -0.73100
O380        O  0.51940786  0.84655621  0.99827012    -0.53700
C381        C  0.48652840  0.82136947  0.49669036     0.77800
O382        O  0.57443871  0.73502701  0.41934347    -0.58300
O383        O  0.57469641  0.69915249  0.45515243    -0.51400
C384        C  0.57360669  0.70677094  0.42860217     0.74400
Zr385      Zr  0.57760713  0.78824595  0.43958588     2.54700
O386        O  0.53859462  0.76748185  0.39785327    -0.78900
O387        O  0.63006794  0.81590171  0.40898445    -0.92300
Zr388      Zr  0.50111421  0.74931476  0.99838563     2.64700
O389        O  0.45741791  0.72614213  0.45975751    -0.97200
O390        O  0.45515544  0.72602331  0.03518507    -0.79300
O391        O  0.53835476  0.79780774  0.46852695    -0.82600
O392        O  0.53881899  0.73886433  0.46851793    -2.17400
O393        O  0.67581084  0.78613303  0.50077580    -0.66000
O394        O  0.63130190  0.72799558  0.49993369    -0.50600
C395        C  0.66431171  0.75243626  0.00021710     0.72700
O396        O  0.56999246  0.83629976  0.08037035    -0.58900
O397        O  0.57010961  0.87226453  0.04448208    -0.50900
C398        C  0.56835301  0.86324739  0.07102254     0.74500
O399        O  0.56725348  0.73217822  0.08019978    -0.70300
O400        O  0.57138336  0.69788423  0.04490294    -0.49000
C401        C  0.56732726  0.70431835  0.07117569     0.75900
O402        O  0.67484688  0.88984425  0.50270001    -0.65700
O403        O  0.62974635  0.90239341  0.50116296    -0.52900
C404        C  0.66298193  0.91166873  0.00244527     0.74300
Zr405      Zr  0.65018174  0.82526325  0.50134421     2.77500
O406        O  0.69340542  0.84703047  0.04031454    -0.96400
O407        O  0.69553118  0.84946691  0.46407593    -0.77200
Zr408      Zr  0.57427118  0.78695192  0.06008345     2.70100
O409        O  0.62329898  0.80985508  0.09419670    -0.78500
O410        O  0.53003516  0.76758700  0.09822004    -0.97600
Zr411      Zr  0.57463445  0.84592678  0.49974027     2.21500
Zr412      Zr  0.57588560  0.72842090  0.49990907     2.11100
O413        O  0.61300278  0.77640403  0.03126468    -2.46300
O414        O  0.61250907  0.83635784  0.03104441    -0.78300
O415        O  0.61467105  0.77708787  0.47000123    -0.70500
O416        O  0.53665223  0.79712135  0.02960464    -2.31400
O417        O  0.61405075  0.83691131  0.46992999    -2.27600
O418        O  0.53734783  0.73830920  0.02981006    -0.72200
H419        H  0.52442102  0.71839533  0.45660421     0.79800
H420        H  0.52134802  0.80239208  0.04102963     0.80900
H421        H  0.62707248  0.77017992  0.04339362     0.83100
H422        H  0.62859903  0.85773515  0.45840058     0.80700
H423        H  0.46641006  0.74144104  0.05211887     0.43700
H424        H  0.51138231  0.74337728  0.09250644     0.42700
H425        H  0.63933316  0.83472093  0.08806377     0.42400
H426        H  0.68788223  0.82560446  0.05166841     0.40300
H427        H  0.68859378  0.82954353  0.45045996     0.43400
H428        H  0.63633140  0.84109363  0.40746761     0.38200
H429        H  0.51499673  0.75023313  0.40578704     0.44300
H430        H  0.46322996  0.71044456  0.44845762     0.40700
H431        H  0.71638041  0.85393759  0.03091212     0.45700
H432        H  0.62112546  0.80591235  0.38963418     0.44400
H433        H  0.43469659  0.70972270  0.46940657     0.44500
H434        H  0.54157057  0.76394874  0.11519979     0.44900
O435        O  0.21159768  0.52361460  0.99747355    -0.74000
O436        O  0.15329699  0.47974642  0.99877070    -0.52900
C437        C  0.17757364  0.51245199  0.49786420     0.79700
O438        O  0.26546640  0.42582602  0.41958284    -0.58600
O439        O  0.30168012  0.42638657  0.45541703    -0.51600
C440        C  0.29396437  0.42727278  0.42886463     0.71800
O441        O  0.16472407  0.42996863  0.41947082    -0.73100
O442        O  0.12746539  0.42826090  0.45483875    -0.53700
C443        C  0.13737982  0.43107253  0.42847408     0.77800
O444        O  0.31460741  0.52299394  0.99961097    -0.58300
O445        O  0.32860855  0.47893051  0.00032185    -0.51400
C446        C  0.33689296  0.51233124  0.50039746     0.74400
Zr447      Zr  0.25041023  0.49827861  0.99898016     2.54700
O448        O  0.27364703  0.54268642  0.46063584    -0.78900
O449        O  0.27378501  0.54359538  0.03635164    -0.92300
Zr450      Zr  0.21233362  0.42273739  0.43976799     2.64700
O451        O  0.23329068  0.46501544  0.40011390    -0.97200
O452        O  0.18550979  0.37160707  0.40765542    -0.79300
O453        O  0.20205098  0.46132768  0.46893975    -0.82600
O454        O  0.26135975  0.46147366  0.46899500    -2.17400
O455        O  0.26768009  0.43317052  0.08044950    -0.66000
O456        O  0.30243381  0.42936027  0.04541146    -0.50600
C457        C  0.29585303  0.43363744  0.07158008     0.72700
O458        O  0.11026529  0.32439679  0.50152583    -0.58900
O459        O  0.09740470  0.36933494  0.50042234    -0.50900
C460        C  0.08836078  0.33622961  0.00144002     0.74500
O461        O  0.21478576  0.32422759  0.50018804    -0.70300
O462        O  0.27280113  0.36904856  0.50082934    -0.49000
C463        C  0.24836209  0.33569270  0.00068451     0.75900
O464        O  0.16318361  0.42970455  0.07998340    -0.65700
O465        O  0.12659428  0.42818910  0.04411430    -0.52900
C466        C  0.13592896  0.43073637  0.07062807     0.74300
Zr467      Zr  0.21233625  0.42454065  0.06028612     2.77500
O468        O  0.18833364  0.37516155  0.09414117    -0.96400
O469        O  0.23230009  0.46724365  0.09956826    -0.77200
Zr470      Zr  0.17504929  0.34918221  0.50064602     2.70100
O471        O  0.15428917  0.30435553  0.03908765    -0.78500
O472        O  0.15082345  0.30408554  0.46311424    -0.97600
Zr473      Zr  0.15377033  0.42446248  0.49972325     2.21500
Zr474      Zr  0.27200108  0.42432779  0.50015627     2.11100
O475        O  0.22353189  0.38623698  0.03143272    -2.46300
O476        O  0.16328710  0.38618939  0.03099537    -0.78300
O477        O  0.26117140  0.46189292  0.03034775    -0.70500
O478        O  0.16342776  0.38564951  0.46962335    -2.31400
O479        O  0.20237394  0.46243107  0.02995047    -2.27600
O480        O  0.22366857  0.38553450  0.46990821    -0.72200
H481        H  0.28181141  0.47615374  0.45716017     0.79800
H482        H  0.14279045  0.37118313  0.45789273     0.80900
H483        H  0.22971264  0.37215038  0.04359810     0.83100
H484        H  0.19696451  0.47765857  0.04135354     0.80700
H485        H  0.16005548  0.36446942  0.40684155     0.43700
H486        H  0.17077649  0.31098538  0.44955694     0.42700
H487        H  0.14254399  0.31224495  0.05309727     0.42400
H488        H  0.19354400  0.38663228  0.11329964     0.40300
H489        H  0.24554392  0.49068436  0.08998170     0.43400
H490        H  0.25283034  0.53909615  0.04790273     0.38200
H491        H  0.26092421  0.52927267  0.44319916     0.44300
H492        H  0.25828450  0.48246548  0.40490838     0.40700
H493        H  0.16224243  0.36393344  0.09212451     0.45700
H494        H  0.28074205  0.56608421  0.02605486     0.44400
H495        H  0.23478786  0.45164743  0.38346080     0.44500
H496        H  0.14757323  0.28221724  0.47250587     0.44900
O497        O  0.43047734  0.16406689  0.41934913    -0.74000
O498        O  0.42880611  0.12686391  0.45478749    -0.52900
C499        C  0.43161181  0.13674309  0.42842740     0.79700
O500        O  0.52368673  0.31440301  0.00012590    -0.58600
O501        O  0.47954176  0.32825589  0.49969584    -0.51600
C502        C  0.51236188  0.33659851  0.49998610     0.71800
O503        O  0.52450256  0.21146127  0.99592033    -0.73100
O504        O  0.48080829  0.15310061  0.99776268    -0.53700
C505        C  0.51372670  0.17796162  0.49605530     0.77800
O506        O  0.42465815  0.26394142  0.41901800    -0.58300
O507        O  0.42579820  0.30046596  0.45486751    -0.51400
C508        C  0.42615041  0.29248591  0.42828594     0.74400
Zr509      Zr  0.42248077  0.21134115  0.43940354     2.54700
O510        O  0.46319738  0.23358907  0.39878481    -0.78900
O511        O  0.37144636  0.18314313  0.40733650    -0.92300
Zr512      Zr  0.49911409  0.25025118  0.99800505     2.64700
O513        O  0.54185181  0.27345938  0.45849040    -0.97200
O514        O  0.54579878  0.27208652  0.03414264    -0.79300
O515        O  0.46172625  0.20158856  0.46816026    -0.82600
O516        O  0.46141295  0.26074856  0.46825196    -2.17400
O517        O  0.32482463  0.21396194  0.50092337    -0.66000
O518        O  0.36938749  0.27210967  0.50066472    -0.50600
C519        C  0.33623032  0.24750739  0.00086046     0.72700
O520        O  0.43003669  0.16325062  0.08008719    -0.58900
O521        O  0.42973626  0.12718914  0.04421333    -0.50900
C522        C  0.43150141  0.13621666  0.07075333     0.74500
O523        O  0.43271956  0.26751881  0.07994296    -0.70300
O524        O  0.42890610  0.30201691  0.04465961    -0.49000
C525        C  0.43274060  0.29545263  0.07094875     0.75900
O526        O  0.32573778  0.10955974  0.50247750    -0.65700
O527        O  0.37081396  0.09696902  0.50092415    -0.52900
C528        C  0.33767731  0.08786642  0.00158156     0.74300
Zr529      Zr  0.34992155  0.17425865  0.50108589     2.77500
O530        O  0.30586437  0.15160253  0.03969711    -0.96400
O531        O  0.30460938  0.15076279  0.46375767    -0.77200
Zr532      Zr  0.42610795  0.21279966  0.05990029     2.70100
O533        O  0.37706047  0.18951140  0.09400269    -0.78500
O534        O  0.47003598  0.23229113  0.09830220    -0.97600
Zr535      Zr  0.42560501  0.15361397  0.49951101     2.21500
Zr536      Zr  0.42459799  0.27135835  0.49982602     2.11100
O537        O  0.38736330  0.22332119  0.03114193    -2.46300
O538        O  0.38772644  0.16331303  0.03096763    -0.78300
O539        O  0.38557619  0.22264211  0.46992391    -0.70500
O540        O  0.46369943  0.20255186  0.02938290    -2.31400
O541        O  0.38605663  0.16260805  0.46969470    -2.27600
O542        O  0.46305356  0.26138202  0.02957022    -0.72200
H543        H  0.47575190  0.28118821  0.45628733     0.79800
H544        H  0.47901711  0.19723168  0.04074758     0.80900
H545        H  0.37335057  0.22954592  0.04333820     0.83100
H546        H  0.37152692  0.14184547  0.45809255     0.80700
H547        H  0.53343672  0.26018402  0.05215967     0.43700
H548        H  0.48830058  0.25682361  0.09297724     0.42700
H549        H  0.36245499  0.16398087  0.08910256     0.42400
H550        H  0.31315574  0.17204860  0.05280844     0.40300
H551        H  0.31230933  0.17051419  0.44984135     0.43400
H552        H  0.38189342  0.18812579  0.38779649     0.38200
H553        H  0.48700896  0.24305984  0.40751680     0.44300
H554        H  0.53779083  0.29150387  0.44903461     0.40700
H555        H  0.28375325  0.14804346  0.03058614     0.45700
H556        H  0.36014079  0.19794008  0.40892695     0.44400
H557        H  0.56523247  0.28739872  0.46802338     0.44500
H558        H  0.45802122  0.23511694  0.11533412     0.44900
C559        C  0.26031905  0.31026241  0.00074694    -0.17200
C560        C  0.27347794  0.29153711  0.00088826     0.06900
C561        C  0.29211076  0.27261551  0.00101359     0.08700
C562        C  0.31070336  0.25931621  0.00100735    -0.18100
C563        C  0.46182497  0.62593726  0.50018887    -0.17200
C564        C  0.43645151  0.59628384  0.50043763     0.06900
C565        C  0.40372652  0.56398974  0.50062269     0.08700
C566        C  0.37389140  0.53891605  0.50063273    -0.18100
C567        C  0.26150648  0.94853685  0.00244709    -0.17200
C568        C  0.27501724  0.98054899  0.00254337     0.06900
C569        C  0.29394660  0.01824108  0.00232568     0.08700
C570        C  0.31251611  0.05025679  0.00204221    -0.18100
C571        C  0.16708143  0.62630315  0.49816107    -0.17200
C572        C  0.16284101  0.59671436  0.49787346     0.06900
C573        C  0.16302952  0.56437252  0.49758812     0.08700
C574        C  0.16746576  0.53916338  0.49751906    -0.18100
C575        C  0.37325749  0.83285489  0.49471857    -0.17200
C576        C  0.40261393  0.83659132  0.49418208     0.06900
C577        C  0.43464124  0.83585349  0.49451589     0.08700
C578        C  0.45971716  0.83126618  0.49539002    -0.18100
C579        C  0.68819274  0.94924433  0.00325142    -0.17200
C580        C  0.70683090  0.98124554  0.00350498     0.06900
C581        C  0.72569540  0.01892806  0.00334121     0.08700
C582        C  0.73905157  0.05091553  0.00291325    -0.18100
C583        C  0.05075371  0.31100225  0.00171542    -0.17200
C584        C  0.01871156  0.29270914  0.00164057     0.06900
C585        C  0.98102390  0.27430420  0.00133720     0.08700
C586        C  0.94906653  0.26119895  0.00098039    -0.18100
C587        C  0.54048530  0.16790892  0.49508482    -0.17200
C588        C  0.56548310  0.16313467  0.49479455     0.06900
C589        C  0.59747458  0.16225256  0.49498000     0.08700
C590        C  0.62684164  0.16596119  0.49553454    -0.18100
C591        C  0.05141356  0.73804740  0.00097869    -0.17200
C592        C  0.01942439  0.72469809  0.00119560     0.06900
C593        C  0.98172680  0.70605196  0.00148882     0.08700
C594        C  0.94968610  0.68771096  0.00173316    -0.18100
C595        C  0.74077859  0.68999073  0.00096129    -0.17200
C596        C  0.72745450  0.70861357  0.00082975     0.06900
C597        C  0.70857268  0.72736064  0.00049498     0.08700
C598        C  0.68987601  0.74059045  0.00024310    -0.18100
C599        C  0.83229049  0.46020874  0.49690624    -0.17200
C600        C  0.83664676  0.43493435  0.49669111     0.06900
C601        C  0.83686773  0.40257895  0.49687197     0.08700
C602        C  0.83275913  0.37302379  0.49732864    -0.18100
C603        C  0.53900637  0.37360492  0.50046060    -0.17200
C604        C  0.56437911  0.40328670  0.50071329     0.06900
C605        C  0.59688173  0.43585581  0.50082089     0.08700
C606        C  0.62651445  0.46128991  0.50074026    -0.18100
C607        C  0.43859450  0.32173965  0.09216085    -0.17200
C608        C  0.44562577  0.34331060  0.11096907     0.06900
C609        C  0.45524047  0.36809900  0.13356152     0.08700
C610        C  0.46369897  0.38917478  0.15296093    -0.18100
C611        C  0.43039522  0.31815820  0.40702026    -0.17200
C612        C  0.43734288  0.33982204  0.38830983     0.06900
C613        C  0.44809788  0.36527916  0.36613800     0.08700
C614        C  0.45815552  0.38713516  0.34722870    -0.18100
C615        C  0.67674622  0.55838509  0.09198441    -0.17200
C616        C  0.65499756  0.55075254  0.11073137     0.06900
C617        C  0.63030527  0.54091857  0.13340850     0.08700
C618        C  0.60942928  0.53258317  0.15293435    -0.18100
C619        C  0.68030137  0.56778980  0.40775165    -0.17200
C620        C  0.65856726  0.56069374  0.38907239     0.06900
C621        C  0.63340157  0.55003955  0.36666978     0.08700
C622        C  0.61192446  0.54001704  0.34746939    -0.18100
C623        C  0.56127675  0.67794820  0.09233328    -0.17200
C624        C  0.55396479  0.65638294  0.11117742     0.06900
C625        C  0.54394555  0.63165883  0.13383579     0.08700
C626        C  0.53521638  0.61059738  0.15325697    -0.18100
C627        C  0.56946501  0.68105187  0.40741620    -0.17200
C628        C  0.56280419  0.65932971  0.38881319     0.06900
C629        C  0.55229723  0.63387216  0.36666916     0.08700
C630        C  0.54223249  0.61207755  0.34771778    -0.18100
C631        C  0.38965922  0.46735093  0.15372395    -0.17200
C632        C  0.36866525  0.45866544  0.13429776     0.06900
C633        C  0.34399868  0.44838970  0.11162816     0.08700
C634        C  0.32238681  0.44056981  0.09278064    -0.18100
C635        C  0.31985255  0.43202622  0.40768004    -0.17200
C636        C  0.34156713  0.43932116  0.38898597     0.06900
C637        C  0.36686390  0.45041875  0.36671417     0.08700
C638        C  0.38850669  0.46064529  0.34767369    -0.18100
C639        C  0.92597225  0.53703818  0.15306654    -0.17200
C640        C  0.91386855  0.54591008  0.13357553     0.06900
C641        C  0.89905654  0.55583221  0.11092245     0.08700
C642        C  0.88447565  0.56288308  0.09217735    -0.18100
C643        C  0.88335520  0.56205998  0.40816395    -0.17200
C644        C  0.89823663  0.55501248  0.38967569     0.06900
C645        C  0.91381104  0.54546961  0.36735970     0.08700
C646        C  0.92646389  0.53694841  0.34804418    -0.18100
C647        C  0.92207141  0.39029391  0.15280781    -0.17200
C648        C  0.90955311  0.36959785  0.13315975     0.06900
C649        C  0.89498115  0.34525756  0.11022833     0.08700
C650        C  0.88103699  0.32377929  0.09126547    -0.18100
C651        C  0.88743928  0.31879357  0.40669668    -0.17200
C652        C  0.90260503  0.34039540  0.38802038     0.06900
C653        C  0.91781891  0.36575732  0.36582535     0.08700
C654        C  0.92973506  0.38752725  0.34685905    -0.18100
C655        C  0.11544666  0.43688467  0.09163758    -0.17200
C656        C  0.10132581  0.44458463  0.11036287     0.06900
C657        C  0.08676398  0.45495205  0.13296998     0.08700
C658        C  0.07454982  0.46383808  0.15241221    -0.18100
C659        C  0.07467809  0.46336106  0.34730285    -0.17200
C660        C  0.08729728  0.45448836  0.36640570     0.06900
C661        C  0.10253366  0.44441796  0.38863630     0.08700
C662        C  0.11709465  0.43710759  0.40722905    -0.18100
C663        C  0.07747861  0.61018456  0.15297545    -0.17200
C664        C  0.09015430  0.63098101  0.13343139     0.06900
C665        C  0.10519168  0.65540038  0.11063442     0.08700
C666        C  0.11954933  0.67684732  0.09173753    -0.18100
C667        C  0.11267231  0.68035293  0.40698340    -0.17200
C668        C  0.09764857  0.65873253  0.38833430     0.06900
C669        C  0.08267890  0.63352552  0.36608210     0.08700
C670        C  0.07089999  0.61197186  0.34700340    -0.18100
C671        C  0.38915117  0.92645285  0.15222881    -0.17200
C672        C  0.36820800  0.91470286  0.13269553     0.06900
C673        C  0.34371305  0.90020828  0.10987300     0.08700
C674        C  0.32236057  0.88559494  0.09094871    -0.18100
C675        C  0.38880244  0.92755037  0.34706062    -0.17200
C676        C  0.36753745  0.91519409  0.36631522     0.06900
C677        C  0.34248302  0.89978760  0.38863234     0.08700
C678        C  0.32074888  0.88472252  0.40718917    -0.18100
C679        C  0.53564462  0.92561064  0.15201390    -0.17200
C680        C  0.54486267  0.91348504  0.13278286     0.06900
C681        C  0.55520462  0.89852070  0.11054871     0.08700
C682        C  0.56258042  0.88390915  0.09205710    -0.18100
C683        C  0.53905167  0.92715585  0.34673289    -0.17200
C684        C  0.54789509  0.91474347  0.36604742     0.06900
C685        C  0.55726633  0.89920979  0.38856898     0.08700
C686        C  0.56372500  0.88410689  0.40730495    -0.18100
C687        C  0.67860772  0.11552336  0.09199940    -0.17200
C688        C  0.65680244  0.10160649  0.11072249     0.06900
C689        C  0.63166316  0.08763782  0.13312655     0.08700
C690        C  0.61032714  0.07593630  0.15238218    -0.18100
C691        C  0.67998580  0.11412787  0.40724782    -0.17200
C692        C  0.65842456  0.09924546  0.38850749     0.06900
C693        C  0.63348453  0.08411997  0.36603097     0.08700
C694        C  0.61217021  0.07197867  0.34676434    -0.18100
C695        C  0.43724104  0.11562239  0.09185566    -0.17200
C696        C  0.44483238  0.10160659  0.11069385     0.06900
C697        C  0.45537809  0.08746896  0.13340909     0.08700
C698        C  0.46449615  0.07561075  0.15290030    -0.18100
C699        C  0.43766054  0.11639973  0.40730243    -0.17200
C700        C  0.44494519  0.10165491  0.38888365     0.06900
C701        C  0.45495824  0.08623705  0.36681434     0.08700
C702        C  0.46380660  0.07364846  0.34770363    -0.18100
O703        O  0.46914071  0.06555152  0.79885244    -0.74000
O704        O  0.48363038  0.03616810  0.83201706    -0.52900
C705        C  0.47230627  0.05722088  0.82479878     0.79700
O706        O  0.40257097  0.93216836  0.70122858    -0.58600
O707        O  0.44626530  0.96240407  0.66800799    -0.51600
C708        C  0.41399408  0.94072685  0.67528270     0.71800
O709        O  0.40277446  0.93188307  0.79817275    -0.73100
O710        O  0.44654309  0.96168557  0.83143256    -0.53700
C711        C  0.41425379  0.94027064  0.82409555     0.77800
O712        O  0.47257231  0.06905184  0.70163813    -0.58300
O713        O  0.48441026  0.03778932  0.66828346    -0.51400
C714        C  0.47494706  0.06024577  0.67564031     0.74400
Zr715      Zr  0.48127152  0.05301128  0.75021656     2.54700
O716        O  0.42707473  0.05625653  0.74962350    -0.78900
O717        O  0.51839979  0.11748005  0.75175358    -0.92300
Zr718      Zr  0.42749185  0.94661172  0.74975752     2.64700
O719        O  0.37065485  0.94468038  0.75201646    -0.97200
O720        O  0.39914639  0.88206211  0.74859198    -0.79300
O721        O  0.45393931  0.99964938  0.77733148    -0.82600
O722        O  0.45356378  0.99999396  0.72268290    -2.17400
O723        O  0.59650527  0.06817497  0.70117272    -0.66000
O724        O  0.55277913  0.03778558  0.66801575    -0.50600
C725        C  0.58500563  0.05970043  0.67523591     0.72700
O726        O  0.53121309  0.93376634  0.79808334    -0.58900
O727        O  0.51620593  0.96232515  0.83164191    -0.50900
C728        C  0.52797220  0.94174090  0.82415602     0.74500
O729        O  0.52759996  0.93138842  0.70079483    -0.70300
O730        O  0.51462725  0.96208252  0.66771032    -0.49000
C731        C  0.52480418  0.94010288  0.67487789     0.75900
O732        O  0.59722748  0.06564045  0.79833166    -0.65700
O733        O  0.55340098  0.03622388  0.83161662    -0.52900
C734        C  0.58579235  0.05727027  0.82429955     0.74300
Zr735      Zr  0.57210145  0.05258156  0.74984554     2.77500
O736        O  0.62953786  0.05562013  0.74954529    -0.96400
O737        O  0.59954808  0.11704089  0.75081950    -0.77200
Zr738      Zr  0.51812978  0.94607326  0.74957154     2.70100
O739        O  0.57070944  0.94001996  0.74775540    -0.78500
O740        O  0.47848998  0.88196368  0.75133906    -0.97600
Zr741      Zr  0.49991850  0.99932484  0.80453343     2.21500
Zr742      Zr  0.49960705  0.99983920  0.69517155     2.11100
O743        O  0.54570102  0.99945415  0.72244341    -2.46300
O744        O  0.54578940  0.99919472  0.77698224    -0.78300
O745        O  0.52707446  0.05384556  0.72189095    -0.70500
O746        O  0.47240877  0.94527960  0.77780512    -2.31400
O747        O  0.52725400  0.05364324  0.77815162    -2.27600
O748        O  0.47231614  0.94551667  0.72144562    -0.72200
H749        H  0.43573230  0.00023972  0.71049820     0.79800
H750        H  0.46225075  0.92489390  0.79043733     0.80900
H751        H  0.56352229  0.99943735  0.71010045     0.83100
H752        H  0.53756711  0.07388750  0.79092956     0.80700
H753        H  0.40553102  0.87558564  0.76715030     0.43700
H754        H  0.46671812  0.87579826  0.73230040     0.42700
H755        H  0.59077294  0.96457404  0.75029021     0.42400
H756        H  0.62767746  0.03901429  0.73417623     0.40300
H757        H  0.58935815  0.12275861  0.73401028     0.43400
H758        H  0.52744559  0.12294743  0.77172563     0.38200
H759        H  0.40770975  0.03113317  0.75014404     0.44300
H760        H  0.37224241  0.96173179  0.73717060     0.40700
H761        H  0.64639621  0.07955145  0.74192120     0.45700
H762        H  0.50140064  0.12624520  0.75042311     0.44400
H763        H  0.35321495  0.92102178  0.74427746     0.44500
H764        H  0.49454160  0.87200675  0.75103209     0.44900
O765        O  0.06572314  0.59692295  0.79865593    -0.74000
O766        O  0.03689947  0.55302943  0.83201114    -0.52900
C767        C  0.05733415  0.58552246  0.82463391     0.79700
O768        O  0.93274069  0.52943723  0.70160086    -0.58600
O769        O  0.96352400  0.51680911  0.66837683    -0.51600
C770        C  0.94154200  0.52694919  0.67562835     0.71800
O771        O  0.93524064  0.53184013  0.79898888    -0.73100
O772        O  0.96348998  0.51594876  0.83214234    -0.53700
C773        C  0.94301838  0.52799013  0.82495341     0.77800
O774        O  0.07100157  0.59554374  0.70138365    -0.58300
O775        O  0.03922688  0.55222938  0.66821574    -0.51400
C776        C  0.06224693  0.58409485  0.67543676     0.74400
Zr777      Zr  0.05458957  0.57167566  0.75019836     2.54700
O778        O  0.06258735  0.63120053  0.74856649    -0.78900
O779        O  0.11843489  0.59559173  0.75331763    -0.92300
Zr780      Zr  0.94827095  0.52031434  0.75028001     2.64700
O781        O  0.94881959  0.57659058  0.75089787    -0.97200
O782        O  0.88365266  0.48532284  0.75167311    -0.79300
O783        O  0.00145927  0.54636037  0.77751509    -0.82600
O784        O  0.00141611  0.54672836  0.72287458    -2.17400
O785        O  0.06806995  0.47087647  0.70118188    -0.66000
O786        O  0.03712601  0.48349425  0.66813005    -0.50600
C787        C  0.05926379  0.47349533  0.67526006     0.72700
O788        O  0.93380801  0.40255055  0.79828613    -0.58900
O789        O  0.96364019  0.44610063  0.83170986    -0.50900
C790        C  0.94250750  0.41375950  0.82427677     0.74500
O791        O  0.93003948  0.40382065  0.70119605    -0.70300
O792        O  0.96115588  0.44738791  0.66808716    -0.49000
C793        C  0.93858611  0.41535108  0.67526197     0.75900
O794        O  0.06677459  0.46902714  0.79850103    -0.65700
O795        O  0.03813559  0.48414878  0.83188183    -0.52900
C796        C  0.05907372  0.47274823  0.82452250     0.74300
Zr797      Zr  0.05260493  0.47970653  0.74990369     2.77500
O798        O  0.05377912  0.42432741  0.75006225    -0.96400
O799        O  0.11719628  0.51555085  0.74964369    -0.77200
Zr800      Zr  0.94604252  0.42805212  0.74992446     2.70100
O801        O  0.93783478  0.36846014  0.74786999    -0.78500
O802        O  0.88206617  0.40370674  0.75205831    -0.97600
Zr803      Zr  0.00046456  0.49968288  0.80474651     2.21500
Zr804      Zr  0.00013166  0.49983330  0.69545037     2.11100
O805        O  0.99926031  0.45303363  0.72266496    -2.46300
O806        O  0.99934511  0.45311043  0.77718100    -0.78300
O807        O  0.05425071  0.52612434  0.72189477    -0.70500
O808        O  0.94632169  0.47359872  0.77820343    -2.31400
O809        O  0.05464684  0.52615722  0.77821656    -2.27600
O810        O  0.94604501  0.47372357  0.72197740    -0.72200
H811        H  0.00194349  0.56486521  0.71056693     0.79800
H812        H  0.92606968  0.46361978  0.79095394     0.80900
H813        H  0.99881112  0.43497939  0.71030114     0.83100
H814        H  0.07496846  0.53614728  0.79089975     0.80700
H815        H  0.87789051  0.47491746  0.77122482     0.43700
H816        H  0.87685977  0.41529583  0.73596520     0.42700
H817        H  0.96181336  0.37230587  0.74367633     0.42400
H818        H  0.03750241  0.40997568  0.73436790     0.40300
H819        H  0.12377322  0.52378343  0.76973371     0.43400
H820        H  0.12883922  0.62150591  0.75050234     0.38200
H821        H  0.03812426  0.62725973  0.74890366     0.44300
H822        H  0.96420132  0.59031578  0.73456526     0.40700
H823        H  0.07776406  0.43091997  0.74296785     0.45700
H824        H  0.12452409  0.58730201  0.73553405     0.44400
H825        H  0.92456674  0.57046437  0.74492488     0.44500
H826        H  0.87186375  0.37866406  0.74588791     0.44900
O827        O  0.40262410  0.46690387  0.79918688    -0.74000
O828        O  0.44669674  0.48351366  0.83254863    -0.52900
C829        C  0.41408563  0.47056164  0.82517653     0.79700
O830        O  0.47011250  0.40322227  0.70144127    -0.58600
O831        O  0.48305166  0.44685494  0.66830117    -0.51600
C832        C  0.47288456  0.41466051  0.67549335     0.71800
O833        O  0.46611364  0.40206610  0.79865214    -0.73100
O834        O  0.48301294  0.44610467  0.83215738    -0.53700
C835        C  0.47008943  0.41349346  0.82467784     0.77800
O836        O  0.40318590  0.47287670  0.70241649    -0.58300
O837        O  0.44650366  0.48582539  0.66899356    -0.51400
C838        C  0.41446902  0.47587557  0.67640921     0.74400
Zr839      Zr  0.42807770  0.48213857  0.75090442     2.54700
O840        O  0.36830618  0.43085207  0.74934973    -0.78900
O841        O  0.40454260  0.52234616  0.75385517    -0.92300
Zr842      Zr  0.47947447  0.42742832  0.75029586     2.64700
O843        O  0.42516297  0.36968320  0.75020562    -0.97200
O844        O  0.51671693  0.40043080  0.75176711    -0.79300
O845        O  0.45347556  0.45428118  0.77787590    -0.82600
O846        O  0.45283302  0.45405503  0.72327049    -2.17400
O847        O  0.52792364  0.59644108  0.70160359    -0.66000
O848        O  0.51490491  0.55285850  0.66840315    -0.50600
C849        C  0.52488162  0.58496439  0.67564546     0.72700
O850        O  0.59732041  0.53170545  0.79853190    -0.58900
O851        O  0.55378238  0.51662448  0.83216017    -0.50900
C852        C  0.58621963  0.52872493  0.82460741     0.74500
O853        O  0.59569434  0.52617141  0.70162251    -0.70300
O854        O  0.55242686  0.51495252  0.66858351    -0.49000
C855        C  0.58433491  0.52395930  0.67571369     0.75900
O856        O  0.53350797  0.59767234  0.79896329    -0.65700
O857        O  0.51792218  0.55376525  0.83240279    -0.52900
C858        C  0.53040029  0.58632421  0.82496866     0.74300
Zr859      Zr  0.51995731  0.57249569  0.75047532     2.77500
O860        O  0.57518163  0.62942321  0.75003941    -0.96400
O861        O  0.48437022  0.60134765  0.75178726    -0.77200
Zr862      Zr  0.57133520  0.51754778  0.75029000     2.70100
O863        O  0.63078790  0.56927377  0.74875209    -0.78500
O864        O  0.59449309  0.47699839  0.75277252    -0.97600
Zr865      Zr  0.50005633  0.49995197  0.80531561     2.21500
Zr866      Zr  0.49945803  0.50000567  0.69581565     2.11100
O867        O  0.54638469  0.54587638  0.72310344    -2.46300
O868        O  0.54622839  0.54549602  0.77754226    -0.78300
O869        O  0.47331703  0.52772337  0.72251327    -0.70500
O870        O  0.52599700  0.47197007  0.77859222    -2.31400
O871        O  0.47371191  0.52788034  0.77897336    -2.27600
O872        O  0.52577258  0.47208832  0.72199717    -0.72200
H873        H  0.43468449  0.43630039  0.71102582     0.79800
H874        H  0.53590314  0.46153312  0.79121867     0.80900
H875        H  0.56440277  0.56362995  0.71076873     0.83100
H876        H  0.46401911  0.53831578  0.79181255     0.80700
H877        H  0.50146123  0.37676430  0.76052872     0.43700
H878        H  0.58957015  0.46567817  0.73356374     0.42700
H879        H  0.62679725  0.58969441  0.74702083     0.42400
H880        H  0.58928451  0.62753517  0.73415291     0.40300
H881        H  0.46584587  0.58881967  0.73697636     0.43400
H882        H  0.40566505  0.52827725  0.77452510     0.38200
H883        H  0.37189558  0.41051988  0.74531616     0.44300
H884        H  0.41019820  0.37138029  0.73496761     0.40700
H885        H  0.56838895  0.64671579  0.74310357     0.45700
H886        H  0.37886403  0.50710177  0.74983720     0.44400
H887        H  0.43227776  0.35296396  0.74246815     0.44500
H888        H  0.62060912  0.49272789  0.75326901     0.44900
O889        O  0.78880020  0.47596610  0.49720642    -0.74000
O890        O  0.84712168  0.51973982  0.49881252    -0.52900
C891        C  0.82180056  0.48668879  0.99722473     0.79700
O892        O  0.73492171  0.57411321  0.91960917    -0.58600
O893        O  0.69913603  0.57447844  0.95539847    -0.51600
C894        C  0.70658763  0.57309044  0.92884269     0.71800
O895        O  0.83623063  0.57052987  0.91968987    -0.73100
O896        O  0.87291817  0.57143039  0.95523359    -0.53700
C897        C  0.86340049  0.56911829  0.92878773     0.77800
O898        O  0.68570630  0.47675717  0.50066338    -0.58300
O899        O  0.67185223  0.52088245  0.00001770    -0.51400
C900        C  0.66348009  0.48802449  0.00056448     0.74400
Zr901      Zr  0.74982426  0.50114110  0.49904820     2.54700
O902        O  0.72580986  0.45776073  0.96033522    -0.78900
O903        O  0.72743309  0.45584094  0.53646218    -0.92300
Zr904      Zr  0.78835598  0.57764821  0.93982831     2.64700
O905        O  0.76836355  0.53660160  0.89933119    -0.97200
O906        O  0.81521096  0.62956514  0.90850386    -0.79300
O907        O  0.79806139  0.53857430  0.96895780    -0.82600
O908        O  0.73920534  0.53882832  0.96895827    -2.17400
O909        O  0.73153217  0.56549243  0.57976031    -0.66000
O910        O  0.69745982  0.57048665  0.54475373    -0.50600
C911        C  0.70360747  0.56555929  0.57087381     0.72700
O912        O  0.89043001  0.67481780  0.00216272    -0.58900
O913        O  0.90282362  0.62956879  0.00095378    -0.50900
C914        C  0.91190922  0.66335311  0.50174994     0.74500
O915        O  0.78637629  0.67607102  0.00077789    -0.70300
O916        O  0.72827022  0.63148107  0.00100401    -0.49000
C917        C  0.75226710  0.66428097  0.50029047     0.75900
O918        O  0.83663568  0.56998686  0.58022347    -0.65700
O919        O  0.87346043  0.57142719  0.54460959    -0.52900
C920        C  0.86407597  0.56915112  0.57107909     0.74300
Zr921      Zr  0.78746019  0.57482118  0.56008016     2.77500
O922        O  0.81152398  0.62517783  0.59283330    -0.96400
O923        O  0.76858406  0.53417431  0.60074013    -0.77200
Zr924      Zr  0.82569501  0.65058730  0.00122261     2.70100
O925        O  0.84572176  0.69461070  0.53938694    -0.78500
O926        O  0.85008635  0.69558754  0.96364085    -0.97600
Zr927      Zr  0.84619280  0.57482511  0.00004525     2.21500
Zr928      Zr  0.72864807  0.57597277  0.00017302     2.11100
O929        O  0.77660762  0.61331189  0.53118958    -2.46300
O930        O  0.83671083  0.61319184  0.53101994    -0.78300
O931        O  0.73875486  0.53758628  0.53006461    -0.70500
O932        O  0.83712216  0.61412804  0.97003686    -2.31400
O933        O  0.79773385  0.53682976  0.53013111    -2.27600
O934        O  0.77722288  0.61486884  0.97014128    -0.72200
H935        H  0.71874700  0.52423589  0.95710355     0.79800
H936        H  0.85786363  0.62858097  0.95840544     0.80900
H937        H  0.77040538  0.62740126  0.54332672     0.83100
H938        H  0.80312913  0.52164702  0.54161597     0.80700
H939        H  0.83985069  0.63470063  0.90543589     0.43700
H940        H  0.82995105  0.68916250  0.95038774     0.42700
H941        H  0.86169650  0.68966002  0.55115624     0.42400
H942        H  0.80822274  0.61439841  0.61215778     0.40300
H943        H  0.75448769  0.51029662  0.59200557     0.43400
H944        H  0.74818180  0.46195713  0.54889826     0.38200
H945        H  0.73889948  0.47118909  0.94301797     0.44300
H946        H  0.74298131  0.51956712  0.90321670     0.40700
H947        H  0.83750078  0.63749767  0.58958852     0.45700
H948        H  0.72272339  0.43379495  0.52646495     0.44400
H949        H  0.76825197  0.55078805  0.88272206     0.44500
H950        H  0.85409910  0.71766570  0.97316216     0.44900
O951        O  0.68605319  0.20969419  0.49619274    -0.74000
O952        O  0.67173748  0.15148909  0.49807999    -0.52900
C953        C  0.66354855  0.17621542  0.99664430     0.79700
O954        O  0.83849865  0.26438259  0.91875429    -0.58600
O955        O  0.87422416  0.30099903  0.95444876    -0.51600
C956        C  0.86563463  0.29303155  0.92792027     0.71800
O957        O  0.73379243  0.16288800  0.91935469    -0.73100
O958        O  0.69823557  0.12608795  0.95501684    -0.53700
C959        C  0.70544018  0.13548793  0.92856366     0.77800
O960        O  0.78912883  0.31366406  0.49808108    -0.58300
O961        O  0.84750163  0.32828448  0.99784027    -0.51400
C962        C  0.82277427  0.33623952  0.99783037     0.74400
Zr963      Zr  0.75015749  0.24934831  0.49837423     2.54700
O964        O  0.72800668  0.27294247  0.96168397    -0.78900
O965        O  0.72794860  0.27160028  0.53637189    -0.92300
Zr966      Zr  0.78818691  0.21152283  0.93936573     2.64700
O967        O  0.76658535  0.23120341  0.89905981    -0.97200
O968        O  0.81193582  0.18415176  0.90745229    -0.79300
O969        O  0.73930382  0.20122919  0.96864402    -0.82600
O970        O  0.79820784  0.26053915  0.96839580    -2.17400
O971        O  0.83392395  0.26851172  0.57917060    -0.66000
O972        O  0.87206721  0.30324051  0.54380425    -0.50600
C973        C  0.86152448  0.29676868  0.57005084     0.72700
O974        O  0.78496396  0.11040760  0.00243457    -0.58900
O975        O  0.72703632  0.09711528  0.00097296    -0.50900
C976        C  0.75126080  0.08824766  0.50189575     0.74500
O977        O  0.88962706  0.21521045  0.00036325    -0.70300
O978        O  0.90273396  0.27316380  0.00050113    -0.49000
C979        C  0.91161541  0.24882382  0.50022914     0.75900
O980        O  0.73315739  0.16327737  0.57994827    -0.65700
O981        O  0.69773769  0.12629582  0.54431189    -0.52900
C982        C  0.70485424  0.13577756  0.57076786     0.74300
Zr983      Zr  0.78696036  0.21261734  0.55963924     2.77500
O984        O  0.81401596  0.18872627  0.59174860    -0.96400
O985        O  0.76495421  0.23147137  0.60012712    -0.77200
Zr986      Zr  0.82485311  0.17518240  0.00050554     2.70100
O987        O  0.84861926  0.15494519  0.53899693    -0.78500
O988        O  0.84487868  0.15170290  0.96191441    -0.97600
Zr989      Zr  0.72813905  0.15328659  0.99972862     2.21500
Zr990      Zr  0.84642954  0.27192425  0.99936678     2.11100
O991        O  0.83623051  0.22399470  0.53053649    -2.46300
O992        O  0.77608332  0.16334587  0.53067795    -0.78300
O993        O  0.79788595  0.26102579  0.52942470    -0.70500
O994        O  0.77656873  0.16299483  0.96956377    -2.31400
O995        O  0.73850441  0.20177298  0.52961703    -2.27600
O996        O  0.83694644  0.22341599  0.96942472    -0.72200
H997        H  0.80387750  0.28079837  0.95635780     0.79800
H998        H  0.77043152  0.14227954  0.95795219     0.80900
H999        H  0.85664235  0.23048054  0.54261972     0.83100
H1000       H  0.71785734  0.19618088  0.54109010     0.80700
H1001       H  0.80175688  0.18396537  0.88836894     0.43700
H1002       H  0.85970957  0.17249352  0.94952577     0.42700
H1003       H  0.82869434  0.14272613  0.55273416     0.42400
H1004       H  0.81140560  0.19650795  0.61114954     0.40300
H1005       H  0.75264776  0.24296815  0.59115132     0.43400
H1006       H  0.71226509  0.25048574  0.54814848     0.38200
H1007       H  0.73689300  0.26848627  0.94346658     0.44300
H1008       H  0.77670361  0.25706176  0.90198571     0.40700
H1009       H  0.79738752  0.16273244  0.59167007     0.45700
H1010       H  0.71156273  0.27767231  0.52646118     0.44400
H1011       H  0.77921168  0.22932758  0.88203876     0.44500
H1012       H  0.86197465  0.14616098  0.97124160     0.44900
O1013       O  0.31410001  0.78920908  0.49578833    -0.74000
O1014       O  0.32850359  0.84743246  0.49773055    -0.52900
C1015       C  0.33664891  0.82274349  0.99607355     0.79700
O1016       O  0.16100717  0.73426373  0.91919264    -0.58600
O1017       O  0.12584582  0.69771212  0.95513809    -0.51600
C1018       C  0.13411898  0.70554534  0.92856550     0.71800
O1019       O  0.26641710  0.83545220  0.91905515    -0.73100
O1020       O  0.30181468  0.87310174  0.95438867    -0.53700
C1021       C  0.29464487  0.86314628  0.92806858     0.77800
O1022       O  0.21089199  0.68555498  0.49880830    -0.58300
O1023       O  0.15287477  0.67124375  0.99832467    -0.51400
C1024       C  0.17750689  0.66316454  0.99814288     0.74400
Zr1025     Zr  0.25006393  0.74980590  0.49835868     2.54700
O1026       O  0.27179914  0.72761275  0.95956793    -0.78900
O1027       O  0.27318295  0.72818402  0.53609809    -0.92300
Zr1028     Zr  0.21156452  0.78754800  0.93914059     2.64700
O1029       O  0.23169991  0.76617366  0.89899008    -0.97200
O1030       O  0.18817772  0.81548342  0.90745562    -0.79300
O1031       O  0.26074761  0.79801286  0.96802451    -0.82600
O1032       O  0.20180424  0.73866336  0.96815209    -2.17400
O1033       O  0.16636867  0.73163855  0.57970612    -0.66000
O1034       O  0.12881012  0.69656645  0.54416631    -0.50600
C1035       C  0.13903028  0.70321114  0.57050273     0.72700
O1036       O  0.21545200  0.88908190  0.00246956    -0.58900
O1037       O  0.27328974  0.90219184  0.00033814    -0.50900
C1038       C  0.24889545  0.91098988  0.50189938     0.74500
O1039       O  0.11086049  0.78416178  0.00110255    -0.70300
O1040       O  0.09781053  0.72624809  0.00013255    -0.49000
C1041       C  0.08878733  0.75067181  0.50042367     0.75900
O1042       O  0.26650431  0.83716224  0.57966713    -0.65700
O1043       O  0.30265381  0.87324697  0.54393900    -0.52900
C1044       C  0.29502462  0.86436449  0.57045344     0.74300
Zr1045     Zr  0.21339240  0.78695249  0.55951547     2.77500
O1046       O  0.18585658  0.81024432  0.59169868    -0.96400
O1047       O  0.23751045  0.76972718  0.59959639    -0.77200
Zr1048     Zr  0.17565750  0.82430823  0.00067475     2.70100
O1049       O  0.15263923  0.84697638  0.53724952    -0.78500
O1050       O  0.15481457  0.84709797  0.96214792    -0.97600
Zr1051     Zr  0.27208072  0.84607583  0.49938651     2.21500
Zr1052     Zr  0.15414232  0.72767359  0.99955047     2.11100
O1053       O  0.16409843  0.77556665  0.53042270    -2.46300
O1054       O  0.22432245  0.83601684  0.53033035    -0.78300
O1055       O  0.20241961  0.73838179  0.52945634    -0.70500
O1056       O  0.22353260  0.83626513  0.96929215    -2.31400
O1057       O  0.26175239  0.79751388  0.52948524    -2.27600
O1058       O  0.16323337  0.77599956  0.96957871    -0.72200
H1059       H  0.19598566  0.71830695  0.95619189     0.79800
H1060       H  0.22957808  0.85693836  0.95765083     0.80900
H1061       H  0.14368890  0.76910365  0.54249933     0.83100
H1062       H  0.28238836  0.80317642  0.54100349     0.80700
H1063       H  0.19992157  0.81756141  0.88874510     0.43700
H1064       H  0.14130137  0.82650510  0.94922786     0.42700
H1065       H  0.14323391  0.82835556  0.55229055     0.42400
H1066       H  0.19478818  0.80912035  0.61102287     0.40300
H1067       H  0.25052245  0.75910342  0.59039721     0.43400
H1068       H  0.29109921  0.74979450  0.54628146     0.38200
H1069       H  0.27395991  0.74254817  0.94275979     0.44300
H1070       H  0.22413042  0.74118431  0.90380941     0.40700
H1071       H  0.19780235  0.83595302  0.58721259     0.45700
H1072       H  0.28723997  0.71952334  0.52573225     0.44400
H1073       H  0.21648145  0.76458012  0.88257488     0.44500
H1074       H  0.13650741  0.85100590  0.97127512     0.44900
O1075       O  0.56989654  0.83547750  0.91945889    -0.74000
O1076       O  0.57181500  0.87285364  0.95485731    -0.52900
C1077       C  0.56904349  0.86298558  0.92847056     0.79700
O1078       O  0.47671062  0.68498792  0.49970600    -0.58600
O1079       O  0.52088982  0.67146784  0.99944697    -0.51600
C1080       C  0.48804569  0.66305814  0.99970685     0.71800
O1081       O  0.47558536  0.78786636  0.49651388    -0.73100
O1082       O  0.51915610  0.84632461  0.49798008    -0.53700
C1083       C  0.48674221  0.82165183  0.99731080     0.77800
O1084       O  0.57459062  0.73480178  0.91956314    -0.58300
O1085       O  0.57518012  0.69909903  0.95537458    -0.51400
C1086       C  0.57395220  0.70662612  0.92882475     0.74400
Zr1087     Zr  0.57776162  0.78814118  0.93967689     2.54700
O1088       O  0.53821681  0.76711853  0.89830529    -0.78900
O1089       O  0.63020104  0.81558903  0.90905395    -0.92300
Zr1090     Zr  0.50096925  0.74913006  0.49844842     2.64700
O1091       O  0.45845189  0.72712059  0.95900429    -0.97200
O1092       O  0.45559148  0.72736944  0.53570356    -0.79300
O1093       O  0.53861883  0.79797949  0.96853860    -0.82600
O1094       O  0.53890712  0.73880895  0.96857840    -2.17400
O1095       O  0.67595812  0.78618654  0.00033564    -0.66000
O1096       O  0.63140728  0.72803393  0.00025576    -0.50600
C1097       C  0.66419138  0.75240419  0.50026178     0.72700
O1098       O  0.56953823  0.83609944  0.58030699    -0.58900
O1099       O  0.56983454  0.87213053  0.54440515    -0.50900
C1100       C  0.56795295  0.86305823  0.57093973     0.74500
O1101       O  0.56611047  0.73164022  0.57994034    -0.70300
O1102       O  0.57145666  0.69797299  0.54473609    -0.49000
C1103       C  0.56672052  0.70405463  0.57092956     0.75900
O1104       O  0.67508270  0.89001722  0.00265934    -0.65700
O1105       O  0.62997097  0.90256729  0.00139707    -0.52900
C1106       C  0.66274849  0.91148858  0.50227894     0.74300
Zr1107     Zr  0.65038954  0.82538687  0.00122558     2.77500
O1108       O  0.69328506  0.84702095  0.54037657    -0.96400
O1109       O  0.69569200  0.84972541  0.96390414    -0.77200
Zr1110     Zr  0.57395845  0.78682682  0.56010122     2.70100
O1111       O  0.62289467  0.80900171  0.59424946    -0.78500
O1112       O  0.53043362  0.76822280  0.59876039    -0.97600
Zr1113     Zr  0.57484838  0.84607943  0.99977203     2.21500
Zr1114     Zr  0.57590836  0.72832477  0.00000968     2.11100
O1115       O  0.61279285  0.77633021  0.53136321    -2.46300
O1116       O  0.61228026  0.83627102  0.53111676    -0.78300
O1117       O  0.61475206  0.77699803  0.97011029    -0.70500
O1118       O  0.53638177  0.79700448  0.52960056    -2.31400
O1119       O  0.61417637  0.83699535  0.96990403    -2.27600
O1120       O  0.53720199  0.73813248  0.52982706    -0.72200
H1121       H  0.52452516  0.71834752  0.95665118     0.79800
H1122       H  0.52100573  0.80223534  0.54097016     0.80900
H1123       H  0.62682377  0.77007576  0.54351255     0.83100
H1124       H  0.62868589  0.85780735  0.95834983     0.80700
H1125       H  0.46903531  0.73599296  0.55391250     0.43700
H1126       H  0.51243592  0.74334270  0.59413189     0.42700
H1127       H  0.63946455  0.83365066  0.58791227     0.42400
H1128       H  0.68835142  0.82552992  0.55138010     0.40300
H1129       H  0.68911787  0.82966081  0.95051713     0.43400
H1130       H  0.63702907  0.84097155  0.90803401     0.38200
H1131       H  0.51407334  0.75509625  0.90674828     0.44300
H1132       H  0.46440403  0.71150546  0.94773394     0.40700
H1133       H  0.71636422  0.85470246  0.53085366     0.45700
H1134       H  0.62109255  0.80619697  0.88959749     0.44400
H1135       H  0.43548019  0.71063718  0.96828424     0.44500
H1136       H  0.54288035  0.76644849  0.61595039     0.44900
O1137       O  0.21110247  0.52361492  0.49742803    -0.74000
O1138       O  0.15279785  0.47971294  0.49884592    -0.52900
C1139       C  0.17809182  0.51249451  0.99783490     0.79700
O1140       O  0.26565569  0.42497381  0.91999850    -0.58600
O1141       O  0.30162340  0.42525766  0.95591313    -0.51600
C1142       C  0.29403308  0.42616887  0.92932664     0.71800
O1143       O  0.16484287  0.42986045  0.91982756    -0.73100
O1144       O  0.12739390  0.42801581  0.95507521    -0.53700
C1145       C  0.13744974  0.43095735  0.92875599     0.77800
O1146       O  0.31468284  0.52364267  0.49993801    -0.58300
O1147       O  0.32861469  0.47950973  0.50052761    -0.51400
C1148       C  0.33685654  0.51174730  0.00006042     0.74400
Zr1149     Zr  0.25041533  0.49877952  0.49907707     2.54700
O1150       O  0.27300620  0.54193750  0.96038225    -0.78900
O1151       O  0.27279255  0.54345660  0.53696956    -0.92300
Zr1152     Zr  0.21226055  0.42192640  0.93982434     2.64700
O1153       O  0.23209117  0.46162452  0.89842883    -0.97200
O1154       O  0.18492794  0.36995582  0.90861730    -0.79300
O1155       O  0.20209850  0.46077397  0.96882731    -0.82600
O1156       O  0.26133372  0.46089771  0.96896791    -2.17400
O1157       O  0.26767489  0.43227790  0.57995138    -0.66000
O1158       O  0.30277648  0.42924549  0.54483827    -0.50600
C1159       C  0.29593752  0.43291087  0.57107086     0.72700
O1160       O  0.11011664  0.32423501  0.00228190    -0.58900
O1161       O  0.09737737  0.36921908  0.00021710    -0.50900
C1162       C  0.08845725  0.33633808  0.50114185     0.74500
O1163       O  0.21461365  0.32385091  0.00037321    -0.70300
O1164       O  0.27263125  0.36864936  0.00105227    -0.49000
C1165       C  0.24854250  0.33606901  0.50053200     0.75900
O1166       O  0.16316792  0.42912362  0.57996255    -0.65700
O1167       O  0.12668625  0.42819352  0.54423384    -0.52900
C1168       C  0.13592922  0.43026883  0.57073628     0.74300
Zr1169     Zr  0.21252682  0.42459016  0.55998833     2.77500
O1170       O  0.18872687  0.37495854  0.59356261    -0.96400
O1171       O  0.23274220  0.46703791  0.59942701    -0.77200
Zr1172     Zr  0.17488233  0.34878066  0.00105341     2.70100
O1173       O  0.15461348  0.30569678  0.53938064    -0.78500
O1174       O  0.15060178  0.30404308  0.96324258    -0.97600
Zr1175     Zr  0.15383961  0.42420560  0.99977935     2.21500
Zr1176     Zr  0.27183925  0.42387490  0.00045218     2.11100
O1177       O  0.22371084  0.38650457  0.53098152    -2.46300
O1178       O  0.16339086  0.38640860  0.53071144    -0.78300
O1179       O  0.26132179  0.46224038  0.53018199    -0.70500
O1180       O  0.16337328  0.38514299  0.96982400    -2.31400
O1181       O  0.20238174  0.46259088  0.52991387    -2.27600
O1182       O  0.22350303  0.38492112  0.97026219    -0.72200
H1183       H  0.28179065  0.47549372  0.95710914     0.79800
H1184       H  0.14269018  0.37064252  0.95815297     0.80900
H1185       H  0.22988105  0.37236936  0.54309417     0.83100
H1186       H  0.19691362  0.47768795  0.54143740     0.80700
H1187       H  0.15941025  0.36261139  0.90818084     0.43700
H1188       H  0.17090093  0.31024541  0.95023327     0.42700
H1189       H  0.14310069  0.31403814  0.55322597     0.42400
H1190       H  0.19652539  0.38625678  0.61269002     0.40300
H1191       H  0.24224681  0.49043669  0.58990380     0.43400
H1192       H  0.25138500  0.53988543  0.54733948     0.38200
H1193       H  0.25959660  0.52853979  0.94315792     0.44300
H1194       H  0.25704412  0.47968957  0.90273487     0.40700
H1195       H  0.16274978  0.36545026  0.59337582     0.45700
H1196       H  0.28161070  0.56631783  0.52671391     0.44400
H1197       H  0.23363435  0.44738186  0.88247564     0.44500
H1198       H  0.14605956  0.28177872  0.97275744     0.44900
O1199       O  0.42956610  0.16397094  0.91916506    -0.74000
O1200       O  0.42824968  0.12692504  0.95459793    -0.52900
C1201       C  0.43071983  0.13663867  0.92819909     0.79700
O1202       O  0.52370838  0.31442152  0.49981306    -0.58600
O1203       O  0.47954841  0.32827570  0.99984620    -0.51600
C1204       C  0.51236511  0.33659780  0.00029456     0.71800
O1205       O  0.52473078  0.21148375  0.49562454    -0.73100
O1206       O  0.48106899  0.15310393  0.49757470    -0.53700
C1207       C  0.51348315  0.17793979  0.99634827     0.77800
O1208       O  0.42528599  0.26471369  0.91924476    -0.58300
O1209       O  0.42549226  0.30077340  0.95508674    -0.51400
C1210       C  0.42638089  0.29308153  0.92851654     0.74400
Zr1211     Zr  0.42232036  0.21159821  0.93946511     2.54700
O1212       O  0.46260275  0.23261066  0.89854102    -0.78900
O1213       O  0.37087037  0.18411287  0.90780377    -0.92300
Zr1214     Zr  0.49933365  0.25026846  0.49792929     2.64700
O1215       O  0.54184071  0.27291153  0.95870370    -0.97200
O1216       O  0.54598409  0.27192902  0.53410510    -0.79300
O1217       O  0.46149420  0.20165344  0.96817976    -0.82600
O1218       O  0.46137100  0.26097876  0.96828136    -2.17400
O1219       O  0.32456715  0.21376122  0.00110610    -0.66000
O1220       O  0.36910839  0.27192777  0.00051580    -0.50600
C1221       C  0.33649056  0.24772568  0.50083764     0.72700
O1222       O  0.43067052  0.16330936  0.57998707    -0.58900
O1223       O  0.43016316  0.12714384  0.54413755    -0.50900
C1224       C  0.43207346  0.13624467  0.57066547     0.74500
O1225       O  0.43226350  0.26682737  0.58018980    -0.70300
O1226       O  0.42879891  0.30149749  0.54486595    -0.49000
C1227       C  0.43240513  0.29481841  0.57118631     0.75900
O1228       O  0.32557626  0.10953405  0.00211522    -0.65700
O1229       O  0.37067186  0.09699074  0.00056925    -0.52900
C1230       C  0.33782220  0.08787144  0.50208147     0.74300
Zr1231     Zr  0.34976677  0.17423975  0.00122633     2.77500
O1232       O  0.30570160  0.15185149  0.53931462    -0.96400
O1233       O  0.30410441  0.15015310  0.96418342    -0.77200
Zr1234     Zr  0.42624148  0.21254619  0.55978170     2.70100
O1235       O  0.37655303  0.18758499  0.59328250    -0.78500
O1236       O  0.46983739  0.23189263  0.59841832    -0.97600
Zr1237     Zr  0.42536305  0.15367637  0.99952179     2.21500
Zr1238     Zr  0.42445484  0.27146378  0.99984836     2.11100
O1239       O  0.38753562  0.22319940  0.53107049    -2.46300
O1240       O  0.38787274  0.16322273  0.53078799    -0.78300
O1241       O  0.38533944  0.22269237  0.97003230    -0.70500
O1242       O  0.46399316  0.20251997  0.52930870    -2.31400
O1243       O  0.38592536  0.16281317  0.96973729    -2.27600
O1244       O  0.46322389  0.26128495  0.52954050    -0.72200
H1245       H  0.47578869  0.28145162  0.95637080     0.79800
H1246       H  0.47937526  0.19727596  0.54066325     0.80900
H1247       H  0.37351328  0.22939140  0.54328468     0.83100
H1248       H  0.37139134  0.14209350  0.95809378     0.80700
H1249       H  0.53315574  0.26602986  0.55267888     0.43700
H1250       H  0.48765799  0.25677533  0.59361334     0.42700
H1251       H  0.36036969  0.16330606  0.58595679     0.42400
H1252       H  0.31198040  0.17274422  0.55164762     0.40300
H1253       H  0.31157995  0.16974225  0.95013797     0.43400
H1254       H  0.38102294  0.18636242  0.88834384     0.38200
H1255       H  0.48632201  0.24806018  0.90712348     0.44300
H1256       H  0.53853029  0.29155712  0.94948081     0.40700
H1257       H  0.28333186  0.14680180  0.52973140     0.45700
H1258       H  0.36163571  0.20078405  0.90775061     0.44400
H1259       H  0.56524190  0.28611055  0.96833045     0.44500
H1260       H  0.45734442  0.23370672  0.61555909     0.44900
C1261       C  0.26051720  0.31060848  0.50065553    -0.17200
C1262       C  0.27368964  0.29186619  0.50077331     0.06900
C1263       C  0.29236611  0.27293541  0.50088353     0.08700
C1264       C  0.31096218  0.25960328  0.50092357    -0.18100
C1265       C  0.46144356  0.62603800  0.99997467    -0.17200
C1266       C  0.43605407  0.59636573  0.00013726     0.06900
C1267       C  0.40350173  0.56384295  0.00022154     0.08700
C1268       C  0.37382567  0.53847154  0.00019755    -0.18100
C1269       C  0.26113888  0.94852863  0.50283422    -0.17200
C1270       C  0.27472491  0.98055253  0.50320602     0.06900
C1271       C  0.29387186  0.01825780  0.50318001     0.08700
C1272       C  0.31261236  0.05026270  0.50283852    -0.18100
C1273       C  0.16727504  0.62625701  0.99774339    -0.17200
C1274       C  0.16317868  0.59671501  0.99748407     0.06900
C1275       C  0.16354224  0.56444472  0.99734831     0.08700
C1276       C  0.16802625  0.53925443  0.99741327    -0.18100
C1277       C  0.37347199  0.83296800  0.99526934    -0.17200
C1278       C  0.40292800  0.83696818  0.99522675     0.06900
C1279       C  0.43501048  0.83637336  0.99573784     0.08700
C1280       C  0.46002083  0.83168377  0.99641569    -0.18100
C1281       C  0.68795773  0.94905204  0.50291932    -0.17200
C1282       C  0.70660636  0.98104626  0.50312026     0.06900
C1283       C  0.72554545  0.01872405  0.50301599     0.08700
C1284       C  0.73904058  0.05072613  0.50265039    -0.18100
C1285       C  0.05086519  0.31102682  0.50132442    -0.17200
C1286       C  0.01882735  0.29265357  0.50118352     0.06900
C1287       C  0.98113130  0.27419131  0.50084356     0.08700
C1288       C  0.94916367  0.26104955  0.50051752    -0.18100
C1289       C  0.54024084  0.16786947  0.99547606    -0.17200
C1290       C  0.56524617  0.16309885  0.99519160     0.06900
C1291       C  0.59727550  0.16227323  0.99527111     0.08700
C1292       C  0.62668159  0.16605862  0.99567335    -0.18100
C1293       C  0.05125353  0.73851921  0.50088502    -0.17200
C1294       C  0.01928645  0.72539274  0.50133322     0.06900
C1295       C  0.98158437  0.70692457  0.50180443     0.08700
C1296       C  0.94953759  0.68857733  0.50199111    -0.18100
C1297       C  0.74040792  0.68983258  0.50020920    -0.17200
C1298       C  0.72723405  0.70857072  0.50016656     0.06900
C1299       C  0.70846745  0.72740177  0.50012538     0.08700
C1300       C  0.68977103  0.74061245  0.50014267    -0.18100
C1301       C  0.83175418  0.45988515  0.99645785    -0.17200
C1302       C  0.83630548  0.43475233  0.99631014     0.06900
C1303       C  0.83681866  0.40257731  0.99658577     0.08700
C1304       C  0.83285779  0.37309857  0.99708761    -0.18100
C1305       C  0.53902867  0.37360642  0.00091243    -0.17200
C1306       C  0.56438483  0.40330726  0.00117179     0.06900
C1307       C  0.59686513  0.43591612  0.00116741     0.08700
C1308       C  0.62649504  0.46136569  0.00097449    -0.18100
C1309       C  0.43827951  0.32114139  0.59238984    -0.17200
C1310       C  0.44539633  0.34293599  0.61103707     0.06900
C1311       C  0.45498674  0.36803841  0.63340324     0.08700
C1312       C  0.46337745  0.38929649  0.65267077    -0.18100
C1313       C  0.43079775  0.31888797  0.90729927    -0.17200
C1314       C  0.43787087  0.34060203  0.88859786     0.06900
C1315       C  0.44868337  0.36595276  0.86632144     0.08700
C1316       C  0.45866945  0.38761320  0.84725571    -0.18100
C1317       C  0.67689999  0.55864386  0.59197425    -0.17200
C1318       C  0.65512205  0.55111858  0.61068000     0.06900
C1319       C  0.63036322  0.54133337  0.63330144     0.08700
C1320       C  0.60946444  0.53299397  0.65281119    -0.18100
C1321       C  0.68059624  0.56827228  0.90761330    -0.17200
C1322       C  0.65892062  0.56112846  0.88883900     0.06900
C1323       C  0.63375966  0.55039833  0.86636528     0.08700
C1324       C  0.61222851  0.54037780  0.84716659    -0.18100
C1325       C  0.56056210  0.67760470  0.59199728    -0.17200
C1326       C  0.55316013  0.65595061  0.61075763     0.06900
C1327       C  0.54299602  0.63118158  0.63335862     0.08700
C1328       C  0.53422123  0.61019882  0.65282206    -0.18100
C1329       C  0.56981523  0.68086271  0.90765016    -0.17200
C1330       C  0.56306069  0.65913760  0.88901029     0.06900
C1331       C  0.55243160  0.63382083  0.86670737     0.08700
C1332       C  0.54229275  0.61221886  0.84758129    -0.18100
C1333       C  0.38908100  0.46642582  0.65371220    -0.17200
C1334       C  0.36818254  0.45749878  0.63418319     0.06900
C1335       C  0.34372013  0.44708411  0.61133072     0.08700
C1336       C  0.32227823  0.43939140  0.59235122    -0.18100
C1337       C  0.31991700  0.43066124  0.90814969    -0.17200
C1338       C  0.34156921  0.43772813  0.88939986     0.06900
C1339       C  0.36675278  0.44857865  0.86699104     0.08700
C1340       C  0.38827828  0.45874065  0.84782354    -0.18100
C1341       C  0.92619092  0.53707001  0.65282197    -0.17200
C1342       C  0.91412037  0.54622540  0.63347473     0.06900
C1343       C  0.89936554  0.55649789  0.61097925     0.08700
C1344       C  0.88484522  0.56370584  0.59226786    -0.18100
C1345       C  0.88404568  0.56342695  0.90756371    -0.17200
C1346       C  0.89917448  0.55661038  0.88907185     0.06900
C1347       C  0.91506097  0.54707016  0.86691426     0.08700
C1348       C  0.92780269  0.53829041  0.84779256    -0.18100
C1349       C  0.92234910  0.39028263  0.65236228    -0.17200
C1350       C  0.91004444  0.36957793  0.63271667     0.06900
C1351       C  0.89551053  0.34511603  0.60989357     0.08700
C1352       C  0.88144406  0.32349279  0.59106940    -0.18100
C1353       C  0.88687798  0.31889236  0.90666829    -0.17200
C1354       C  0.90155955  0.34083486  0.88812449     0.06900
C1355       C  0.91618032  0.36634980  0.86598039     0.08700
C1356       C  0.92789127  0.38795699  0.84688556    -0.18100
C1357       C  0.11536545  0.43601595  0.59190805    -0.17200
C1358       C  0.10124092  0.44362963  0.61067268     0.06900
C1359       C  0.08680335  0.45429676  0.63314046     0.08700
C1360       C  0.07474401  0.46357662  0.65241153    -0.18100
C1361       C  0.07479333  0.46292768  0.84724759    -0.17200
C1362       C  0.08739350  0.45417550  0.86646797     0.06900
C1363       C  0.10263418  0.44427365  0.88883659     0.08700
C1364       C  0.11722639  0.43705762  0.90747904    -0.18100
C1365       C  0.07873206  0.60911788  0.65255146    -0.17200
C1366       C  0.09100471  0.62988481  0.63294044     0.06900
C1367       C  0.10528796  0.65455198  0.61021901     0.08700
C1368       C  0.11915389  0.67637676  0.59148934    -0.18100
C1369       C  0.11274898  0.67954481  0.90748571    -0.17200
C1370       C  0.09791785  0.65774865  0.88889348     0.06900
C1371       C  0.08319081  0.63258780  0.86654714     0.08700
C1372       C  0.07157284  0.61122298  0.84729990    -0.18100
C1373       C  0.38847677  0.92551746  0.65255939    -0.17200
C1374       C  0.36723951  0.91373029  0.63323530     0.06900
C1375       C  0.34242655  0.89951520  0.61061485     0.08700
C1376       C  0.32096689  0.88530835  0.59169880    -0.18100
C1377       C  0.38877080  0.92506007  0.84674718    -0.17200
C1378       C  0.36742076  0.91314577  0.86593013     0.06900
C1379       C  0.34234223  0.89847280  0.88824208     0.08700
C1380       C  0.32065063  0.88384924  0.90687726    -0.18100
C1381       C  0.53477295  0.92473460  0.65207324    -0.17200
C1382       C  0.54403851  0.91266067  0.63285755     0.06900
C1383       C  0.55454793  0.89798451  0.61054689     0.08700
C1384       C  0.56206996  0.88362358  0.59196108    -0.18100
C1385       C  0.53865806  0.92669779  0.84681549    -0.17200
C1386       C  0.54756653  0.91429183  0.86607921     0.06900
C1387       C  0.55704829  0.89874403  0.88849505     0.08700
C1388       C  0.56362665  0.88369234  0.90718217    -0.18100
C1389       C  0.67850398  0.11519239  0.59189218    -0.17200
C1390       C  0.65668825  0.10113123  0.61060578     0.06900
C1391       C  0.63164986  0.08696966  0.63309927     0.08700
C1392       C  0.61041314  0.07516740  0.65243833    -0.18100
C1393       C  0.67931102  0.11453792  0.90742102    -0.17200
C1394       C  0.65760509  0.09970907  0.88876540     0.06900
C1395       C  0.63257677  0.08458751  0.86635006     0.08700
C1396       C  0.61133095  0.07235930  0.84704547    -0.18100
C1397       C  0.43786572  0.11568769  0.59176098    -0.17200
C1398       C  0.44550312  0.10172129  0.61060353     0.06900
C1399       C  0.45615964  0.08771958  0.63333649     0.08700
C1400       C  0.46530902  0.07596231  0.65287529    -0.18100
C1401       C  0.43641163  0.11609194  0.90696442    -0.17200
C1402       C  0.44343840  0.10111102  0.88853245     0.06900
C1403       C  0.45324469  0.08532413  0.86655163     0.08700
C1404       C  0.46207691  0.07251592  0.84756016    -0.18100
loop_ 
_geom_bond_atom_site_label_1 
_geom_bond_atom_site_label_2 
_geom_bond_distance 
_geom_bond_site_symmetry_2 
_ccdc_geom_bond_type 
O1          Zr13   2.445       .  S
O1            C3   1.287       .  A
O2          Zr39   2.414   1_545  S
O2            C3   1.283       .  A
C3          C702   1.432       .  S
O4          Zr16   2.451       .  S
O4            C6   1.288       .  A
O5          Zr40   2.411   1_565  S
O5            C6   1.282       .  A
C6          C671   1.432       .  S
O7          Zr16   2.445       .  S
O7            C9   1.287       .  A
O8          Zr39   2.414       .  S
O8            C9   1.283       .  A
C9          C675   1.431       .  S
O10         Zr13   2.449       .  S
O10          C12   1.288       .  A
O11         Zr40   2.414       .  S
O11          C12   1.283       .  A
C12         C698   1.433       .  S
Zr13         O14   2.434       .  S
Zr13         O15   2.434       .  S
Zr13         O19   2.370   1_545  S
Zr13         O20   2.369       .  S
Zr13         O43   2.375       .  S
Zr13         O45   2.377       .  S
O14          H57   0.990       .  S
O15          H56   0.990       .  S
O15          H60   0.990       .  S
Zr16         O17   2.437       .  S
Zr16         O18   2.435       .  S
Zr16         O20   2.369   1_565  S
Zr16         O19   2.372       .  S
Zr16         O44   2.378       .  S
Zr16         O46   2.376       .  S
O17          H58   0.990       .  S
O17          H61   0.990       .  S
O18          H51   0.990       .  S
O19         Zr39   2.376       .  S
O20         Zr40   2.382       .  S
O20          H47   0.965       .  S
O21         Zr33   2.446       .  S
O21          C23   1.287       .  A
O22         Zr40   2.415       .  S
O22          C23   1.283       .  A
C23         C690   1.432       .  S
O24         Zr36   2.451       .  S
O24          C26   1.288       .  A
O25         Zr39   2.414       .  S
O25          C26   1.283       .  A
C26         C683   1.436       .  S
O27         Zr36   2.447       .  S
O27          C29   1.287       .  A
O28         Zr40   2.418   1_565  S
O28          C29   1.284       .  A
C29         C679   1.434       .  S
O30         Zr33   2.444       .  S
O30          C32   1.287       .  A
O31         Zr39   2.417   1_545  S
O31          C32   1.283       .  A
C32         C694   1.433       .  S
Zr33         O34   2.437       .  S
Zr33         O35   2.434       .  S
Zr33         O41   2.371   1_545  S
Zr33         O42   2.372   1_545  S
Zr33         O45   2.373       .  S
Zr33         O43   2.375       .  S
O34          H54   0.990       .  S
O34          H59   0.990       .  S
O35          H55   0.990       .  S
Zr36         O37   2.433       .  S
Zr36         O38   2.435       .  S
Zr36         O42   2.370       .  S
Zr36         O41   2.373       .  S
Zr36         O46   2.376       .  S
Zr36         O44   2.374       .  S
O37          H53   0.990       .  S
O38          H52   0.990       .  S
O38          H62   0.990       .  S
Zr39         O42   2.374       .  S
Zr39         O44   2.386       .  S
Zr39         O45   2.384   1_565  S
Zr40         O41   2.382   1_545  S
Zr40         O43   2.381       .  S
Zr40         O46   2.382   1_545  S
O41          H49   0.965   1_565  S
O44          H48   0.966       .  S
O45          H50   0.966       .  S
O63         Zr75   2.441       .  S
O63          C65   1.286       .  A
O64        Zr101   2.413       .  S
O64          C65   1.283       .  A
C65         C670   1.430       .  S
O66         Zr78   2.450       .  S
O66          C68   1.288       .  A
O67        Zr102   2.417   1_655  S
O67          C68   1.283       .  A
C68         C639   1.434       .  S
O69         Zr78   2.447       .  S
O69          C71   1.287       .  A
O70        Zr101   2.418   1_655  S
O70          C71   1.284       .  A
C71         C646   1.434       .  S
O72         Zr75   2.444       .  S
O72          C74   1.287       .  A
O73        Zr102   2.412       .  S
O73          C74   1.282       .  A
C74         C663   1.431       .  S
Zr75         O76   2.434       .  S
Zr75         O77   2.434       .  S
Zr75         O81   2.372       .  S
Zr75         O82   2.369       .  S
Zr75        O105   2.373       .  S
Zr75        O107   2.372       .  S
O76         H119   0.990       .  S
O77         H118   0.990       .  S
O77         H122   0.990       .  S
Zr78         O79   2.437       .  S
Zr78         O80   2.435       .  S
Zr78         O82   2.371   1_655  S
Zr78         O81   2.369   1_655  S
Zr78        O106   2.379       .  S
Zr78        O108   2.378       .  S
O79         H120   0.990       .  S
O79         H123   0.990       .  S
O80         H113   0.990       .  S
O81        Zr101   2.377       .  S
O82        Zr102   2.382       .  S
O82         H109   0.965       .  S
O83         Zr95   2.452       .  S
O83          C85   1.288       .  A
O84        Zr102   2.421       .  S
O84          C85   1.284       .  A
C85         C658   1.437       .  S
O86         Zr98   2.443       .  S
O86          C88   1.286       .  A
O87        Zr101   2.417   1_655  S
O87          C88   1.283       .  A
C88         C654   1.433       .  S
O89         Zr98   2.446       .  S
O89          C91   1.287       .  A
O90        Zr102   2.413   1_655  S
O90          C91   1.283       .  A
C91         C647   1.432       .  S
O92         Zr95   2.445       .  S
O92          C94   1.287       .  A
O93        Zr101   2.418       .  S
O93          C94   1.284       .  A
C94         C659   1.434       .  S
Zr95         O96   2.435       .  S
Zr95         O97   2.435       .  S
Zr95        O103   2.372   1_455  S
Zr95        O104   2.371   1_455  S
Zr95        O107   2.375       .  S
Zr95        O105   2.374       .  S
O96         H116   0.990       .  S
O96         H121   0.990       .  S
O97         H117   0.990       .  S
Zr98         O99   2.435       .  S
Zr98        O100   2.434       .  S
Zr98        O104   2.371       .  S
Zr98        O103   2.370       .  S
Zr98        O108   2.375       .  S
Zr98        O106   2.373       .  S
O99         H115   0.990       .  S
O100        H114   0.990       .  S
O100        H124   0.990       .  S
Zr101       O104   2.375   1_455  S
Zr101       O106   2.383   1_455  S
Zr101       O107   2.384       .  S
Zr102       O103   2.381   1_455  S
Zr102       O105   2.380       .  S
Zr102       O108   2.382   1_455  S
O103        H111   0.966       .  S
O106        H110   0.966       .  S
O107        H112   0.966       .  S
O125       Zr137   2.440       .  S
O125        C127   1.286       .  A
O126       Zr163   2.416       .  S
O126        C127   1.283       .  A
C127        C638   1.431       .  S
O128       Zr140   2.448       .  S
O128        C130   1.287       .  A
O129       Zr164   2.416       .  S
O129        C130   1.283       .  A
C130        C610   1.433       .  S
O131       Zr140   2.440       .  S
O131        C133   1.286       .  A
O132       Zr163   2.421       .  S
O132        C133   1.284       .  A
C133        C614   1.433       .  S
O134       Zr137   2.444       .  S
O134        C136   1.287       .  A
O135       Zr164   2.412       .  S
O135        C136   1.282       .  A
C136        C631   1.430       .  S
Zr137       O138   2.433       .  S
Zr137       O139   2.435       .  S
Zr137       O143   2.370       .  S
Zr137       O144   2.372       .  S
Zr137       O167   2.372       .  S
Zr137       O169   2.374       .  S
O138        H181   0.990       .  S
O139        H180   0.990       .  S
O139        H184   0.990       .  S
Zr140       O141   2.438       .  S
Zr140       O142   2.434       .  S
Zr140       O144   2.371       .  S
Zr140       O143   2.371       .  S
Zr140       O168   2.375       .  S
Zr140       O170   2.374       .  S
O141        H182   0.990       .  S
O141        H185   0.990       .  S
O142        H175   0.990       .  S
O143       Zr163   2.375       .  S
O144       Zr164   2.381       .  S
O144        H171   0.966       .  S
O145       Zr157   2.449       .  S
O145        C147   1.287       .  A
O146       Zr164   2.413       .  S
O146        C147   1.283       .  A
C147        C626   1.432       .  S
O148       Zr160   2.447       .  S
O148        C150   1.287       .  A
O149       Zr163   2.415       .  S
O149        C150   1.283       .  A
C150        C622   1.434       .  S
O151       Zr160   2.449       .  S
O151        C153   1.288       .  A
O152       Zr164   2.413       .  S
O152        C153   1.283       .  A
C153        C618   1.433       .  S
O154       Zr157   2.442       .  S
O154        C156   1.287       .  A
O155       Zr163   2.418       .  S
O155        C156   1.284       .  A
C156        C630   1.433       .  S
Zr157       O158   2.436       .  S
Zr157       O159   2.434       .  S
Zr157       O165   2.369       .  S
Zr157       O166   2.371       .  S
Zr157       O169   2.376       .  S
Zr157       O167   2.373       .  S
O158        H178   0.990       .  S
O158        H183   0.990       .  S
O159        H179   0.990       .  S
Zr160       O161   2.432       .  S
Zr160       O162   2.434       .  S
Zr160       O166   2.369       .  S
Zr160       O165   2.372       .  S
Zr160       O170   2.375       .  S
Zr160       O168   2.373       .  S
O161        H177   0.990       .  S
O162        H176   0.990       .  S
O162        H186   0.990       .  S
Zr163       O166   2.376       .  S
Zr163       O168   2.384       .  S
Zr163       O169   2.385       .  S
Zr164       O165   2.381       .  S
Zr164       O167   2.381       .  S
Zr164       O170   2.381       .  S
O165        H173   0.966       .  S
O168        H172   0.966       .  S
O169        H174   0.966       .  S
O187       Zr199   2.438       .  S
O187        C891   1.286       .  A
O188       Zr927   2.425   1_556  S
O188        C891   1.285       .  A
C189        O889   1.286       .  A
C189        O890   1.285       .  A
C189        C599   1.435       .  S
O190       Zr202   2.443       .  S
O190        C192   1.286       .  A
O191       Zr226   2.425       .  S
O191        C192   1.285       .  A
C192        C619   1.434       .  S
O193       Zr202   2.442       .  S
O193        C195   1.286       .  A
O194       Zr225   2.420       .  S
O194        C195   1.284       .  A
C195        C643   1.434       .  S
O196       Zr199   2.436   1_554  S
O196        C900   1.285       .  A
O197       Zr226   2.428       .  S
O197        C198   1.285       .  A
C198        O898   1.286       .  A
C198        C606   1.436       .  S
Zr199       O201   2.436   1_556  S
Zr199       O902   2.433       .  S
Zr199       O229   2.365   1_556  S
Zr199       O231   2.366   1_556  S
Zr199       O907   2.367       .  S
Zr199       O908   2.367       .  S
O200       Zr901   2.434       .  S
O200        H243   0.990       .  S
O201        H242   0.990       .  S
O201        H246   0.990       .  S
Zr202       O203   2.435       .  S
Zr202       O204   2.436       .  S
Zr202       O206   2.373       .  S
Zr202       O205   2.371       .  S
Zr202       O230   2.369       .  S
Zr202       O232   2.372       .  S
O203        H244   0.990       .  S
O203        H247   0.990       .  S
O204        H237   0.990       .  S
O205       Zr225   2.379       .  S
O205       Zr901   2.367       .  S
O206       Zr226   2.384       .  S
O206       Zr901   2.367       .  S
O206        H233   0.966       .  S
O207       Zr219   2.437       .  S
O207        C209   1.285       .  A
O208       Zr928   2.424       .  S
O208        C209   1.285       .  A
C209        C615   1.433       .  S
O210       Zr222   2.463       .  S
O210        C914   1.291       .  A
O211       Zr225   2.423       .  S
O211        C914   1.285       .  A
C212        O912   1.291       .  A
C212        O913   1.285       .  A
C212        C594   1.443       .  S
O213       Zr222   2.460       .  S
O213        C917   1.290       .  A
O214       Zr226   2.424       .  S
O214        C917   1.285       .  A
C215        O915   1.291       .  A
C215        O916   1.285       .  A
C215        C595   1.443       .  S
O216       Zr219   2.439       .  S
O216        C218   1.286       .  A
O217       Zr927   2.428       .  S
O217        C218   1.285       .  A
C218        C642   1.434       .  S
Zr219       O220   2.434       .  S
Zr219       O221   2.434       .  S
Zr219       O227   2.372       .  S
Zr219       O228   2.371       .  S
Zr219       O231   2.372       .  S
Zr219       O229   2.371       .  S
O220        H240   0.990       .  S
O220        H245   0.990       .  S
O221        H241   0.990       .  S
Zr222       O224   2.435       .  S
Zr222       O925   2.434       .  S
Zr222       O232   2.379       .  S
Zr222       O230   2.380       .  S
Zr222       O930   2.381       .  S
Zr222       O929   2.381       .  S
O223       Zr924   2.433       .  S
O223        H239   0.990       .  S
O224        H238   0.990       .  S
O224        H248   0.990       .  S
Zr225       O890   2.428       .  S
Zr225       O919   2.427       .  S
Zr225       O230   2.390       .  S
Zr225       O930   2.383       .  S
Zr225       O933   2.382       .  S
Zr226       O910   2.424       .  S
Zr226       O232   2.385       .  S
Zr226       O929   2.390       .  S
Zr226       O931   2.380       .  S
O227       Zr924   2.381       .  S
O227       Zr928   2.391       .  S
O227        H235   0.966       .  S
O228       Zr924   2.380       .  S
O228       Zr927   2.385       .  S
O229       Zr928   2.380       .  S
O230        H234   0.966       .  S
O231       Zr927   2.384       .  S
O231        H236   0.966       .  S
O249       Zr261   2.439       .  S
O249        C953   1.286       .  A
O250       Zr989   2.428       .  S
O250        C953   1.285       .  A
C251        O951   1.286       .  A
C251        O952   1.285       .  A
C251        C590   1.435       .  S
O252       Zr264   2.438       .  S
O252        C254   1.285       .  A
O253       Zr288   2.426       .  S
O253        C254   1.285       .  A
C254        C651   1.432       .  S
O255       Zr264   2.433       .  S
O255        C257   1.285       .  A
O256       Zr287   2.423       .  S
O256        C257   1.285       .  A
C257        C691   1.432       .  S
O258       Zr261   2.437       .  S
O258        C962   1.286       .  A
O259       Zr288   2.431       .  S
O259        C260   1.286       .  A
C260        O960   1.286       .  A
C260        C602   1.436       .  S
Zr261       O263   2.437   1_556  S
Zr261       O964   2.433       .  S
Zr261       O291   2.367   1_556  S
Zr261       O293   2.364   1_556  S
Zr261       O969   2.368       .  S
Zr261       O970   2.368       .  S
O262       Zr963   2.433       .  S
O262        H305   0.990       .  S
O263        H304   0.990       .  S
O263        H308   0.990       .  S
Zr264       O265   2.437       .  S
Zr264       O266   2.434       .  S
Zr264       O268   2.371       .  S
Zr264       O267   2.371       .  S
Zr264       O292   2.370       .  S
Zr264       O294   2.370       .  S
O265        H306   0.990       .  S
O265        H309   0.990       .  S
O266        H299   0.990       .  S
O267       Zr287   2.377       .  S
O267       Zr963   2.366       .  S
O268       Zr288   2.382       .  S
O268       Zr963   2.367       .  S
O268        H295   0.966       .  S
O269       Zr281   2.433       .  S
O269        C271   1.285       .  A
O270       Zr990   2.426   1_554  S
O270        C271   1.285       .  A
C271        C650   1.432       .  S
O272       Zr284   2.462       .  S
O272        C976   1.291       .  A
O273       Zr287   2.419       .  S
O273        C976   1.285       .  A
C274        O974   1.290       .  A
C274        O975   1.285       .  A
C274        C582   1.441       .  S
O275       Zr284   2.459       .  S
O275        C979   1.290       .  A
O276       Zr288   2.427       .  S
O276        C979   1.286       .  A
C277        O977   1.290       .  A
C277        O978   1.286       .  A
C277        C586   1.443       .  S
O278       Zr281   2.435       .  S
O278        C280   1.285       .  A
O279       Zr989   2.425   1_554  S
O279        C280   1.285       .  A
C280        C687   1.431       .  S
Zr281       O282   2.435       .  S
Zr281       O283   2.432       .  S
Zr281       O289   2.368       .  S
Zr281       O290   2.369       .  S
Zr281       O293   2.371       .  S
Zr281       O291   2.373       .  S
O282        H302   0.990       .  S
O282        H307   0.990       .  S
O283        H303   0.990       .  S
Zr284       O286   2.434       .  S
Zr284       O987   2.434       .  S
Zr284       O294   2.379       .  S
Zr284       O292   2.377       .  S
Zr284       O992   2.379       .  S
Zr284       O991   2.379       .  S
O285       Zr986   2.434       .  S
O285        H301   0.989       .  S
O286        H300   0.990       .  S
O286        H310   0.990       .  S
Zr287       O952   2.428       .  S
Zr287       O981   2.426       .  S
Zr287       O292   2.388       .  S
Zr287       O992   2.383       .  S
Zr287       O995   2.381       .  S
Zr288       O972   2.421       .  S
Zr288       O294   2.383       .  S
Zr288       O991   2.389       .  S
Zr288       O993   2.379       .  S
O289       Zr986   2.379       .  S
O289       Zr990   2.389   1_554  S
O289        H297   0.966       .  S
O290       Zr986   2.379       .  S
O290       Zr989   2.386   1_554  S
O291       Zr990   2.381   1_554  S
O292        H296   0.966       .  S
O293       Zr989   2.381   1_554  S
O293        H298   0.965       .  S
O311       Zr323   2.435       .  S
O311       C1015   1.285       .  A
O312       Zr349   2.426       .  S
O312       C1015   1.285       .  A
C313       O1013   1.285       .  A
C313       O1014   1.285       .  A
C313        C575   1.434       .  S
O314       Zr326   2.437       .  S
O314        C316   1.285       .  A
O315       Zr350   2.424       .  S
O315        C316   1.285       .  A
C316        C667   1.430       .  S
O317       Zr326   2.433       .  S
O317        C319   1.285       .  A
O318      Zr1051   2.419       .  S
O318        C319   1.284       .  A
C319        C678   1.430       .  S
O320       Zr323   2.436       .  S
O320       C1024   1.285       .  A
O321       Zr350   2.428       .  S
O321        C322   1.285       .  A
C322       O1022   1.286       .  A
C322        C571   1.434       .  S
Zr323       O325   2.435   1_556  S
Zr323      O1026   2.433       .  S
Zr323       O353   2.366   1_556  S
Zr323       O355   2.366   1_556  S
Zr323      O1031   2.367       .  S
Zr323      O1032   2.365       .  S
O324      Zr1025   2.435       .  S
O324        H367   0.990       .  S
O325        H366   0.990       .  S
O325        H370   0.990       .  S
Zr326       O327   2.438       .  S
Zr326       O328   2.434       .  S
Zr326       O330   2.369       .  S
Zr326       O329   2.369       .  S
Zr326       O354   2.373       .  S
Zr326       O356   2.372       .  S
O327        H368   0.990       .  S
O327        H371   0.990       .  S
O328        H361   0.990       .  S
O329      Zr1025   2.365       .  S
O329      Zr1051   2.377       .  S
O330       Zr350   2.383       .  S
O330      Zr1025   2.365       .  S
O330        H357   0.966       .  S
O331       Zr343   2.432       .  S
O331        C333   1.284       .  A
O332      Zr1052   2.423   1_554  S
O332        C333   1.285       .  A
C333        C666   1.431       .  S
O334       Zr346   2.458       .  S
O334       C1038   1.290       .  A
O335      Zr1051   2.423       .  S
O335       C1038   1.285       .  A
C336       O1036   1.290       .  A
C336       O1037   1.285       .  A
C336        C567   1.441       .  S
O337       Zr346   2.459       .  S
O337       C1041   1.290       .  A
O338       Zr350   2.426       .  S
O338       C1041   1.286       .  A
C339       O1039   1.291       .  A
C339       O1040   1.285       .  A
C339        C591   1.443       .  S
O340       Zr343   2.437       .  S
O340        C342   1.285       .  A
O341       Zr349   2.423   1_554  S
O341        C342   1.285       .  A
C342        C674   1.432       .  S
Zr343       O344   2.435       .  S
Zr343       O345   2.433       .  S
Zr343       O351   2.370       .  S
Zr343       O352   2.368       .  S
Zr343       O355   2.370       .  S
Zr343       O353   2.372       .  S
O344        H364   0.990       .  S
O344        H369   0.990       .  S
O345        H365   0.990       .  S
Zr346       O348   2.434       .  S
Zr346      O1049   2.434       .  S
Zr346       O356   2.378       .  S
Zr346       O354   2.379       .  S
Zr346      O1054   2.378       .  S
Zr346      O1053   2.379       .  S
O347      Zr1048   2.434       .  S
O347        H363   0.990       .  S
O348        H362   0.990       .  S
O348        H372   0.990       .  S
Zr349      O1020   2.418       .  S
Zr349      O1037   2.422   1_556  S
Zr349       O352   2.383   1_556  S
Zr349       O355   2.382   1_556  S
Zr349      O1031   2.377       .  S
Zr349      O1056   2.387       .  S
Zr350      O1034   2.426       .  S
Zr350       O356   2.384       .  S
Zr350      O1053   2.388       .  S
Zr350      O1055   2.379       .  S
O351      Zr1048   2.379       .  S
O351      Zr1052   2.389   1_554  S
O351        H359   0.966       .  S
O352      Zr1048   2.379       .  S
O353      Zr1052   2.378   1_554  S
O354      Zr1051   2.388       .  S
O354        H358   0.966       .  S
O355        H360   0.966       .  S
O373       Zr385   2.441       .  S
O373        C375   1.286       .  A
O374       Zr411   2.427       .  S
O374        C375   1.285       .  A
C375        C686   1.436       .  S
O376       Zr388   2.437       .  S
O376       C1080   1.285       .  A
O377       Zr412   2.426       .  S
O377        C378   1.285       .  A
C378       O1078   1.286       .  A
C378        C563   1.435       .  S
O379       Zr388   2.439       .  S
O379       C1083   1.286       .  A
O380      Zr1113   2.425       .  S
O380       C1083   1.285       .  A
C381       O1081   1.286       .  A
C381       O1082   1.285       .  A
C381        C578   1.434       .  S
O382       Zr385   2.438       .  S
O382        C384   1.286       .  A
O383       Zr412   2.427       .  S
O383        C384   1.285       .  A
C384        C627   1.433       .  S
Zr385       O386   2.434       .  S
Zr385       O387   2.435       .  S
Zr385       O391   2.370       .  S
Zr385       O392   2.373       .  S
Zr385       O415   2.372       .  S
Zr385       O417   2.370       .  S
O386        H429   0.990       .  S
O387        H428   0.990       .  S
O387        H432   0.990       .  S
Zr388       O390   2.434   1_556  S
Zr388      O1091   2.436       .  S
Zr388       O416   2.365   1_556  S
Zr388       O418   2.369   1_556  S
Zr388      O1094   2.365       .  S
Zr388      O1093   2.367       .  S
O389      Zr1090   2.435       .  S
O389        H430   0.990       .  S
O389        H433   0.990       .  S
O390        H423   0.990       .  S
O391       Zr411   2.380       .  S
O391      Zr1090   2.368       .  S
O392       Zr412   2.383       .  S
O392      Zr1090   2.365       .  S
O392        H419   0.966       .  S
O393       Zr405   2.460       .  S
O393       C1097   1.290       .  A
O394       Zr412   2.422       .  S
O394       C1097   1.285       .  A
C395       O1095   1.290       .  A
C395       O1096   1.285       .  A
C395        C598   1.442       .  S
O396       Zr408   2.436       .  S
O396        C398   1.285       .  A
O397      Zr1113   2.429   1_554  S
O397        C398   1.286       .  A
C398        C682   1.433       .  S
O399       Zr408   2.432       .  S
O399        C401   1.284       .  A
O400      Zr1114   2.427       .  S
O400        C401   1.285       .  A
C401        C623   1.432       .  S
O402       Zr405   2.453       .  S
O402       C1106   1.289       .  A
O403       Zr411   2.424       .  S
O403       C1106   1.286       .  A
C404       O1104   1.290       .  A
C404       O1105   1.286       .  A
C404        C579   1.441       .  S
Zr405       O407   2.434       .  S
Zr405      O1108   2.435       .  S
Zr405       O417   2.380       .  S
Zr405       O415   2.378       .  S
Zr405      O1115   2.377       .  S
Zr405      O1116   2.380       .  S
O406      Zr1107   2.435       .  S
O406        H426   0.990       .  S
O406        H431   0.990       .  S
O407        H427   0.990       .  S
Zr408       O409   2.435       .  S
Zr408       O410   2.436       .  S
Zr408       O414   2.371       .  S
Zr408       O413   2.372       .  S
Zr408       O418   2.372       .  S
Zr408       O416   2.369       .  S
O409        H425   0.990       .  S
O410        H424   0.990       .  S
O410        H434   0.990       .  S
Zr411      O1082   2.425       .  S
Zr411      O1099   2.428       .  S
Zr411       O417   2.387       .  S
Zr411      O1116   2.384       .  S
Zr411      O1118   2.381       .  S
Zr412      O1102   2.425       .  S
Zr412       O415   2.383       .  S
Zr412      O1115   2.388       .  S
Zr412      O1120   2.380       .  S
O413      Zr1107   2.379       .  S
O413      Zr1114   2.388       .  S
O413        H421   0.966       .  S
O414      Zr1107   2.379       .  S
O414      Zr1113   2.383   1_554  S
O416      Zr1113   2.381   1_554  S
O416        H420   0.966       .  S
O417        H422   0.966       .  S
O418      Zr1114   2.379       .  S
O435       Zr447   2.438       .  S
O435       C1139   1.286       .  A
O436      Zr1175   2.428       .  S
O436       C1139   1.285       .  A
C437       O1137   1.287       .  A
C437       O1138   1.285       .  A
C437        C574   1.434       .  S
O438       Zr450   2.437       .  S
O438        C440   1.285       .  A
O439       Zr474   2.427       .  S
O439        C440   1.285       .  A
C440        C635   1.432       .  S
O441       Zr450   2.437       .  S
O441        C443   1.285       .  A
O442       Zr473   2.426       .  S
O442        C443   1.285       .  A
C443        C662   1.434       .  S
O444       Zr447   2.439       .  S
O444       C1148   1.286   1_556  A
O445      Zr1176   2.429       .  S
O445       C1148   1.285       .  A
C446       O1146   1.287       .  A
C446       O1147   1.285       .  A
C446        C566   1.436       .  S
Zr447       O449   2.435   1_556  S
Zr447      O1150   2.433       .  S
Zr447       O477   2.366   1_556  S
Zr447       O479   2.367   1_556  S
Zr447      O1155   2.368       .  S
Zr447      O1156   2.365       .  S
O448      Zr1149   2.434       .  S
O448        H491   0.990       .  S
O449        H490   0.990       .  S
O449        H494   0.990       .  S
Zr450       O451   2.435       .  S
Zr450       O452   2.436       .  S
Zr450       O454   2.373       .  S
Zr450       O453   2.369       .  S
Zr450       O478   2.369       .  S
Zr450       O480   2.373       .  S
O451        H492   0.990       .  S
O451        H495   0.990       .  S
O452        H485   0.990       .  S
O453       Zr473   2.378       .  S
O453      Zr1149   2.368       .  S
O454       Zr474   2.383       .  S
O454      Zr1149   2.365       .  S
O454        H481   0.966       .  S
O455       Zr467   2.433       .  S
O455        C457   1.285       .  A
O456      Zr1176   2.426       .  S
O456        C457   1.285       .  A
C457        C634   1.431       .  S
O458       Zr470   2.463       .  S
O458       C1162   1.291       .  A
O459       Zr473   2.422       .  S
O459       C1162   1.285       .  A
C460       O1160   1.291       .  A
C460       O1161   1.285       .  A
C460        C583   1.442       .  S
O461       Zr470   2.461       .  S
O461       C1165   1.290       .  A
O462       Zr474   2.423       .  S
O462       C1165   1.285       .  A
C463       O1163   1.290       .  A
C463       O1164   1.285       .  A
C463        C559   1.440       .  S
O464       Zr467   2.440       .  S
O464        C466   1.286       .  A
O465      Zr1175   2.428   1_554  S
O465        C466   1.285       .  A
C466        C655   1.436       .  S
Zr467       O468   2.435       .  S
Zr467       O469   2.434       .  S
Zr467       O475   2.373       .  S
Zr467       O476   2.371       .  S
Zr467       O479   2.369       .  S
Zr467       O477   2.373       .  S
O468        H488   0.990       .  S
O468        H493   0.990       .  S
O469        H489   0.990       .  S
Zr470       O472   2.435       .  S
Zr470      O1173   2.434       .  S
Zr470       O480   2.380       .  S
Zr470       O478   2.379       .  S
Zr470      O1178   2.379       .  S
Zr470      O1177   2.379       .  S
O471      Zr1172   2.434       .  S
O471        H487   0.990       .  S
O472        H486   0.990       .  S
O472        H496   0.990       .  S
Zr473      O1138   2.425       .  S
Zr473      O1167   2.428       .  S
Zr473       O478   2.387       .  S
Zr473      O1178   2.385       .  S
Zr473      O1181   2.382       .  S
Zr474      O1147   2.428       .  S
Zr474      O1158   2.423       .  S
Zr474       O480   2.385       .  S
Zr474      O1177   2.389       .  S
Zr474      O1179   2.378       .  S
O475      Zr1172   2.381       .  S
O475      Zr1176   2.392       .  S
O475        H483   0.966       .  S
O476      Zr1172   2.381       .  S
O476      Zr1175   2.386   1_554  S
O477      Zr1176   2.378       .  S
O478        H482   0.966       .  S
O479      Zr1175   2.381   1_554  S
O479        H484   0.965       .  S
O497       Zr509   2.437       .  S
O497        C499   1.285       .  A
O498       Zr535   2.421       .  S
O498        C499   1.284       .  A
C499        C699   1.432       .  S
O500       Zr512   2.438   1_554  S
O500       C1204   1.286       .  A
O501       Zr536   2.429       .  S
O501        C502   1.286       .  A
C502       O1202   1.286       .  A
C502        C603   1.436       .  S
O503       Zr512   2.440       .  S
O503       C1207   1.286       .  A
O504      Zr1237   2.428       .  S
O504       C1207   1.285       .  A
C505       O1205   1.286       .  A
C505       O1206   1.285       .  A
C505        C587   1.436       .  S
O506       Zr509   2.434       .  S
O506        C508   1.285       .  A
O507       Zr536   2.431       .  S
O507        C508   1.286       .  A
C508        C611   1.432       .  S
Zr509       O510   2.434       .  S
Zr509       O511   2.435       .  S
Zr509       O515   2.370       .  S
Zr509       O516   2.374       .  S
Zr509       O539   2.373       .  S
Zr509       O541   2.370       .  S
O510        H553   0.990       .  S
O511        H552   0.990       .  S
O511        H556   0.990       .  S
Zr512       O514   2.433   1_556  S
Zr512      O1215   2.435       .  S
Zr512       O540   2.366   1_556  S
Zr512       O542   2.370   1_556  S
Zr512      O1218   2.366       .  S
Zr512      O1217   2.366       .  S
O513      Zr1214   2.436       .  S
O513        H554   0.990       .  S
O513        H557   0.990       .  S
O514        H547   0.990       .  S
O515       Zr535   2.379       .  S
O515      Zr1214   2.366       .  S
O516       Zr536   2.383       .  S
O516      Zr1214   2.365       .  S
O516        H543   0.966       .  S
O517       Zr529   2.464       .  S
O517       C1221   1.291       .  A
O518       Zr536   2.421       .  S
O518       C1221   1.285       .  A
C519       O1219   1.290       .  A
C519       O1220   1.285       .  A
C519        C562   1.440       .  S
O520       Zr532   2.434       .  S
O520        C522   1.285       .  A
O521      Zr1237   2.430   1_554  S
O521        C522   1.286       .  A
C522        C695   1.433       .  S
O523       Zr532   2.435       .  S
O523        C525   1.285       .  A
O524      Zr1238   2.427   1_554  S
O524        C525   1.285       .  A
C525        C607   1.433       .  S
O526       Zr529   2.461       .  S
O526       C1230   1.291       .  A
O527       Zr535   2.421       .  S
O527       C1230   1.285       .  A
C528       O1228   1.290       .  A
C528       O1229   1.285       .  A
C528        C570   1.441       .  S
Zr529       O531   2.434       .  S
Zr529      O1232   2.436       .  S
Zr529       O541   2.380       .  S
Zr529       O539   2.379       .  S
Zr529      O1239   2.379       .  S
Zr529      O1240   2.380       .  S
O530      Zr1231   2.436       .  S
O530        H550   0.990       .  S
O530        H555   0.990       .  S
O531        H551   0.990       .  S
Zr532       O533   2.435       .  S
Zr532       O534   2.437       .  S
Zr532       O538   2.372       .  S
Zr532       O537   2.370       .  S
Zr532       O542   2.373       .  S
Zr532       O540   2.372       .  S
O533        H549   0.990       .  S
O534        H548   0.990       .  S
O534        H558   0.990       .  S
Zr535      O1206   2.428       .  S
Zr535      O1223   2.429       .  S
Zr535       O541   2.391       .  S
Zr535      O1240   2.383       .  S
Zr535      O1242   2.381       .  S
Zr536      O1226   2.429       .  S
Zr536       O539   2.386       .  S
Zr536      O1239   2.389       .  S
Zr536      O1244   2.381       .  S
O537      Zr1231   2.380       .  S
O537      Zr1238   2.391   1_554  S
O537        H545   0.966       .  S
O538      Zr1231   2.379       .  S
O538      Zr1237   2.385   1_554  S
O540      Zr1237   2.381   1_554  S
O540        H544   0.966       .  S
O541        H546   0.966       .  S
O542      Zr1238   2.380   1_554  S
C559        C560   1.208       .  T
C560        C561   1.416       .  S
C561        C562   1.208       .  T
C563        C564   1.206       .  T
C564        C565   1.412       .  S
C565        C566   1.206       .  T
C567        C568   1.209       .  T
C568        C569   1.418   1_565  S
C569        C570   1.209       .  T
C571        C572   1.205       .  T
C572        C573   1.411       .  S
C573        C574   1.205       .  T
C575        C576   1.205       .  T
C576        C577   1.411       .  S
C577        C578   1.205       .  T
C579        C580   1.209       .  T
C580        C581   1.418   1_565  S
C581        C582   1.209       .  T
C583        C584   1.210       .  T
C584        C585   1.419   1_455  S
C585        C586   1.210       .  T
C587        C588   1.206       .  T
C588        C589   1.412       .  S
C589        C590   1.206       .  T
C591        C592   1.210       .  T
C592        C593   1.419   1_455  S
C593        C594   1.210       .  T
C595        C596   1.210       .  T
C596        C597   1.419       .  S
C597        C598   1.210       .  T
C599        C600   1.206       .  T
C600        C601   1.412       .  S
C601        C602   1.206       .  T
C603        C604   1.206       .  T
C604        C605   1.413       .  S
C605        C606   1.206       .  T
C607        C608   1.204       .  T
C608        C609   1.410       .  S
C609        C610   1.205       .  T
C611        C612   1.204       .  T
C612        C613   1.410       .  S
C613        C614   1.204       .  T
C615        C616   1.205       .  T
C616        C617   1.410       .  S
C617        C618   1.205       .  T
C619        C620   1.205       .  T
C620        C621   1.411       .  S
C621        C622   1.205       .  T
C623        C624   1.204       .  T
C624        C625   1.409       .  S
C625        C626   1.204       .  T
C627        C628   1.204       .  T
C628        C629   1.410       .  S
C629        C630   1.204       .  T
C631        C632   1.203       .  T
C632        C633   1.408       .  S
C633        C634   1.203       .  T
C635        C636   1.204       .  T
C636        C637   1.409       .  S
C637        C638   1.204       .  T
C639        C640   1.205       .  T
C640        C641   1.411       .  S
C641        C642   1.205       .  T
C643        C644   1.205       .  T
C644        C645   1.411       .  S
C645        C646   1.205       .  T
C647        C648   1.204       .  T
C648        C649   1.409       .  S
C649        C650   1.204       .  T
C651        C652   1.204       .  T
C652        C653   1.410       .  S
C653        C654   1.204       .  T
C655        C656   1.206       .  T
C656        C657   1.413       .  S
C657        C658   1.207       .  T
C659        C660   1.205       .  T
C660        C661   1.412       .  S
C661        C662   1.205       .  T
C663        C664   1.203       .  T
C664        C665   1.408       .  S
C665        C666   1.203       .  T
C667        C668   1.203       .  T
C668        C669   1.407       .  S
C669        C670   1.203       .  T
C671        C672   1.204       .  T
C672        C673   1.409       .  S
C673        C674   1.204       .  T
C675        C676   1.203       .  T
C676        C677   1.408       .  S
C677        C678   1.203       .  T
C679        C680   1.205       .  T
C680        C681   1.411       .  S
C681        C682   1.205       .  T
C683        C684   1.206       .  T
C684        C685   1.413       .  S
C685        C686   1.206       .  T
C687        C688   1.204       .  T
C688        C689   1.409       .  S
C689        C690   1.204       .  T
C691        C692   1.204       .  T
C692        C693   1.410       .  S
C693        C694   1.204       .  T
C695        C696   1.204       .  T
C696        C697   1.410       .  S
C697        C698   1.204       .  T
C699        C700   1.204       .  T
C700        C701   1.410       .  S
C701        C702   1.204       .  T
O703       Zr715   2.446       .  S
O703        C705   1.287       .  A
O704       Zr741   2.418   1_545  S
O704        C705   1.284       .  A
C705       C1404   1.435       .  S
O706       Zr718   2.445       .  S
O706        C708   1.287       .  A
O707       Zr742   2.417       .  S
O707        C708   1.283       .  A
C708       C1373   1.432       .  S
O709       Zr718   2.438       .  S
O709        C711   1.286       .  A
O710       Zr741   2.413       .  S
O710        C711   1.283       .  A
C711       C1377   1.429       .  S
O712       Zr715   2.449       .  S
O712        C714   1.288       .  A
O713       Zr742   2.413   1_545  S
O713        C714   1.283       .  A
C714       C1400   1.433       .  S
Zr715       O716   2.434       .  S
Zr715       O717   2.435       .  S
Zr715       O721   2.371   1_545  S
Zr715       O722   2.371   1_545  S
Zr715       O745   2.375       .  S
Zr715       O747   2.375       .  S
O716        H759   0.990       .  S
O717        H758   0.990       .  S
O717        H762   0.990       .  S
Zr718       O719   2.436       .  S
Zr718       O720   2.435       .  S
Zr718       O722   2.370       .  S
Zr718       O721   2.372       .  S
Zr718       O746   2.375       .  S
Zr718       O748   2.374       .  S
O719        H760   0.990       .  S
O719        H763   0.990       .  S
O720        H753   0.990       .  S
O721       Zr741   2.374       .  S
O722       Zr742   2.381       .  S
O722        H749   0.965   1_565  S
O723       Zr735   2.447       .  S
O723        C725   1.287       .  A
O724       Zr742   2.417   1_545  S
O724        C725   1.283       .  A
C725       C1392   1.433       .  S
O726       Zr738   2.451       .  S
O726        C728   1.288       .  A
O727       Zr741   2.414       .  S
O727        C728   1.283       .  A
C728       C1385   1.435       .  S
O729       Zr738   2.447       .  S
O729        C731   1.287       .  A
O730       Zr742   2.416       .  S
O730        C731   1.283       .  A
C731       C1381   1.432       .  S
O732       Zr735   2.445       .  S
O732        C734   1.287       .  A
O733       Zr741   2.415   1_545  S
O733        C734   1.283       .  A
C734       C1396   1.433       .  S
Zr735       O736   2.437       .  S
Zr735       O737   2.435       .  S
Zr735       O743   2.370   1_545  S
Zr735       O744   2.372   1_545  S
Zr735       O747   2.374       .  S
Zr735       O745   2.376       .  S
O736        H756   0.990       .  S
O736        H761   0.990       .  S
O737        H757   0.990       .  S
Zr738       O739   2.433       .  S
Zr738       O740   2.435       .  S
Zr738       O744   2.371       .  S
Zr738       O743   2.372       .  S
Zr738       O748   2.375       .  S
Zr738       O746   2.370       .  S
O739        H755   0.990       .  S
O740        H754   0.990       .  S
O740        H764   0.990       .  S
Zr741       O744   2.375       .  S
Zr741       O746   2.383       .  S
Zr741       O747   2.383   1_565  S
Zr742       O743   2.381       .  S
Zr742       O745   2.382   1_565  S
Zr742       O748   2.381       .  S
O743        H751   0.965       .  S
O746        H750   0.966       .  S
O747        H752   0.966       .  S
O765       Zr777   2.446       .  S
O765        C767   1.287       .  A
O766       Zr803   2.411       .  S
O766        C767   1.282       .  A
C767       C1372   1.432       .  S
O768       Zr780   2.451       .  S
O768        C770   1.288       .  A
O769       Zr804   2.419   1_655  S
O769        C770   1.284       .  A
C770       C1341   1.436       .  S
O771       Zr780   2.447       .  S
O771        C773   1.287       .  A
O772       Zr803   2.421   1_655  S
O772        C773   1.284       .  A
C773       C1348   1.437       .  S
O774       Zr777   2.449       .  S
O774        C776   1.288       .  A
O775       Zr804   2.408       .  S
O775        C776   1.282       .  A
C776       C1365   1.431       .  S
Zr777       O778   2.434       .  S
Zr777       O779   2.434       .  S
Zr777       O783   2.370       .  S
Zr777       O784   2.372       .  S
Zr777       O807   2.373       .  S
Zr777       O809   2.371       .  S
O778        H821   0.990       .  S
O779        H820   0.990       .  S
O779        H824   0.990       .  S
Zr780       O781   2.436       .  S
Zr780       O782   2.436       .  S
Zr780       O784   2.372   1_655  S
Zr780       O783   2.370   1_655  S
Zr780       O808   2.377       .  S
Zr780       O810   2.377       .  S
O781        H822   0.990       .  S
O781        H825   0.990       .  S
O782        H815   0.990       .  S
O783       Zr803   2.375       .  S
O784       Zr804   2.383       .  S
O784        H811   0.966       .  S
O785       Zr797   2.448       .  S
O785        C787   1.287       .  A
O786       Zr804   2.421       .  S
O786        C787   1.284       .  A
C787       C1360   1.436       .  S
O788       Zr800   2.445       .  S
O788        C790   1.287       .  A
O789       Zr803   2.413   1_655  S
O789        C790   1.283       .  A
C790       C1356   1.433       .  S
O791       Zr800   2.448       .  S
O791        C793   1.287       .  A
O792       Zr804   2.412   1_655  S
O792        C793   1.282       .  A
C793       C1349   1.431       .  S
O794       Zr797   2.448       .  S
O794        C796   1.287       .  A
O795       Zr803   2.419       .  S
O795        C796   1.284       .  A
C796       C1361   1.436       .  S
Zr797       O798   2.435       .  S
Zr797       O799   2.436       .  S
Zr797       O805   2.374   1_455  S
Zr797       O806   2.373   1_455  S
Zr797       O809   2.376       .  S
Zr797       O807   2.373       .  S
O798        H818   0.990       .  S
O798        H823   0.990       .  S
O799        H819   0.990       .  S
Zr800       O801   2.434       .  S
Zr800       O802   2.435       .  S
Zr800       O806   2.375       .  S
Zr800       O805   2.372       .  S
Zr800       O810   2.374       .  S
Zr800       O808   2.373       .  S
O801        H817   0.990       .  S
O802        H816   0.990       .  S
O802        H826   0.990       .  S
Zr803       O806   2.377   1_455  S
Zr803       O808   2.384   1_455  S
Zr803       O809   2.384       .  S
Zr804       O805   2.381   1_455  S
Zr804       O807   2.380       .  S
Zr804       O810   2.381   1_455  S
O805        H813   0.966       .  S
O808        H812   0.966       .  S
O809        H814   0.966       .  S
O827       Zr839   2.444       .  S
O827        C829   1.287       .  A
O828       Zr865   2.417       .  S
O828        C829   1.283       .  A
C829       C1340   1.434       .  S
O830       Zr842   2.451       .  S
O830        C832   1.288       .  A
O831       Zr866   2.416       .  S
O831        C832   1.283       .  A
C832       C1312   1.434       .  S
O833       Zr842   2.443       .  S
O833        C835   1.287       .  A
O834       Zr865   2.419       .  S
O834        C835   1.284       .  A
C835       C1316   1.433       .  S
O836       Zr839   2.446       .  S
O836        C838   1.287       .  A
O837       Zr866   2.413       .  S
O837        C838   1.283       .  A
C838       C1333   1.431       .  S
Zr839       O840   2.434       .  S
Zr839       O841   2.435       .  S
Zr839       O845   2.368       .  S
Zr839       O846   2.372       .  S
Zr839       O869   2.373       .  S
Zr839       O871   2.375       .  S
O840        H883   0.990       .  S
O841        H882   0.990       .  S
O841        H886   0.990       .  S
Zr842       O843   2.436       .  S
Zr842       O844   2.434       .  S
Zr842       O846   2.370       .  S
Zr842       O845   2.370       .  S
Zr842       O870   2.376       .  S
Zr842       O872   2.374       .  S
O843        H884   0.990       .  S
O843        H887   0.990       .  S
O844        H877   0.990       .  S
O845       Zr865   2.375       .  S
O846       Zr866   2.381       .  S
O846        H873   0.966       .  S
O847       Zr859   2.451       .  S
O847        C849   1.287       .  A
O848       Zr866   2.410       .  S
O848        C849   1.282       .  A
C849       C1328   1.431       .  S
O850       Zr862   2.448       .  S
O850        C852   1.288       .  A
O851       Zr865   2.419       .  S
O851        C852   1.284       .  A
C852       C1324   1.436       .  S
O853       Zr862   2.447       .  S
O853        C855   1.288       .  A
O854       Zr866   2.416       .  S
O854        C855   1.283       .  A
C855       C1320   1.433       .  S
O856       Zr859   2.446       .  S
O856        C858   1.287       .  A
O857       Zr865   2.417       .  S
O857        C858   1.284       .  A
C858       C1332   1.434       .  S
Zr859       O860   2.436       .  S
Zr859       O861   2.436       .  S
Zr859       O867   2.371       .  S
Zr859       O868   2.371       .  S
Zr859       O871   2.377       .  S
Zr859       O869   2.374       .  S
O860        H880   0.990       .  S
O860        H885   0.990       .  S
O861        H881   0.990       .  S
Zr862       O863   2.433       .  S
Zr862       O864   2.435       .  S
Zr862       O868   2.369       .  S
Zr862       O867   2.375       .  S
Zr862       O872   2.374       .  S
Zr862       O870   2.373       .  S
O863        H879   0.990       .  S
O864        H878   0.990       .  S
O864        H888   0.990       .  S
Zr865       O868   2.374       .  S
Zr865       O870   2.384       .  S
Zr865       O871   2.386       .  S
Zr866       O867   2.382       .  S
Zr866       O869   2.381       .  S
Zr866       O872   2.380       .  S
O867        H875   0.966       .  S
O870        H874   0.966       .  S
O871        H876   0.966       .  S
O889       Zr901   2.440       .  S
C891       C1301   1.434       .  S
O892       Zr904   2.441       .  S
O892        C894   1.286       .  A
O893       Zr928   2.430   1_556  S
O893        C894   1.286       .  A
C894       C1321   1.436       .  S
O895       Zr904   2.442       .  S
O895        C897   1.286       .  A
O896       Zr927   2.427   1_556  S
O896        C897   1.285       .  A
C897       C1345   1.438       .  S
O898       Zr901   2.439       .  S
O899       Zr928   2.430       .  S
O899        C900   1.286       .  A
C900       C1308   1.436       .  S
Zr901       O903   2.435       .  S
Zr901       O931   2.365       .  S
Zr901       O933   2.366       .  S
O902        H945   0.990       .  S
O903        H944   0.990       .  S
O903        H948   0.990       .  S
Zr904       O905   2.436       .  S
Zr904       O906   2.437       .  S
Zr904       O908   2.374       .  S
Zr904       O907   2.371       .  S
Zr904       O932   2.370       .  S
Zr904       O934   2.373       .  S
O905        H946   0.990       .  S
O905        H949   0.990       .  S
O906        H939   0.990       .  S
O907       Zr927   2.377   1_556  S
O908       Zr928   2.382   1_556  S
O908        H935   0.966       .  S
O909       Zr921   2.437       .  S
O909        C911   1.285       .  A
O910        C911   1.285       .  A
C911       C1317   1.433       .  S
O912       Zr924   2.464       .  S
O913       Zr927   2.420       .  S
C914       C1296   1.443       .  S
O915       Zr924   2.463       .  S
O916       Zr928   2.423       .  S
C917       C1297   1.442       .  S
O918       Zr921   2.441       .  S
O918        C920   1.286       .  A
O919        C920   1.285       .  A
C920       C1344   1.435       .  S
Zr921       O922   2.431       .  S
Zr921       O923   2.433       .  S
Zr921       O929   2.372       .  S
Zr921       O930   2.370       .  S
Zr921       O933   2.369       .  S
Zr921       O931   2.370       .  S
O922        H942   0.990       .  S
O922        H947   0.990       .  S
O923        H943   0.990       .  S
Zr924       O926   2.434   1_554  S
Zr924       O934   2.380   1_554  S
Zr924       O932   2.379   1_554  S
O925        H941   0.990       .  S
O926        H940   0.990       .  S
O926        H950   0.990       .  S
Zr927       O932   2.388   1_554  S
Zr928       O934   2.386   1_554  S
O929        H937   0.966       .  S
O932        H936   0.966       .  S
O933        H938   0.966       .  S
O951       Zr963   2.437       .  S
C953       C1292   1.436       .  S
O954       Zr966   2.438       .  S
O954        C956   1.285       .  A
O955       Zr990   2.427       .  S
O955        C956   1.285       .  A
C956       C1353   1.433       .  S
O957       Zr966   2.433       .  S
O957        C959   1.285       .  A
O958       Zr989   2.423       .  S
O958        C959   1.285       .  A
C959       C1393   1.432       .  S
O960       Zr963   2.437       .  S
O961       Zr990   2.430       .  S
O961        C962   1.286       .  A
C962       C1304   1.435       .  S
Zr963       O965   2.436       .  S
Zr963       O993   2.367       .  S
Zr963       O995   2.366       .  S
O964       H1007   0.990       .  S
O965       H1006   0.990       .  S
O965       H1010   0.990       .  S
Zr966       O967   2.437       .  S
Zr966       O968   2.434       .  S
Zr966       O970   2.372       .  S
Zr966       O969   2.372       .  S
Zr966       O994   2.369       .  S
Zr966       O996   2.372       .  S
O967       H1008   0.990       .  S
O967       H1011   0.990       .  S
O968       H1001   0.990       .  S
O969       Zr989   2.378       .  S
O970       Zr990   2.384       .  S
O970        H997   0.966       .  S
O971       Zr983   2.434       .  S
O971        C973   1.285       .  A
O972        C973   1.285       .  A
C973       C1352   1.431       .  S
O974       Zr986   2.459       .  S
O975       Zr989   2.420   1_554  S
C976       C1284   1.441       .  S
O977       Zr986   2.460       .  S
O978       Zr990   2.425   1_554  S
C979       C1288   1.443       .  S
O980       Zr983   2.436       .  S
O980        C982   1.285       .  A
O981        C982   1.285       .  A
C982       C1389   1.432       .  S
Zr983       O984   2.434       .  S
Zr983       O985   2.434       .  S
Zr983       O991   2.369       .  S
Zr983       O992   2.369       .  S
Zr983       O995   2.371       .  S
Zr983       O993   2.372       .  S
O984       H1004   0.990       .  S
O984       H1009   0.990       .  S
O985       H1005   0.990       .  S
Zr986       O988   2.433   1_554  S
Zr986       O996   2.379   1_554  S
Zr986       O994   2.377   1_554  S
O987       H1003   0.990       .  S
O988       H1002   0.990       .  S
O988       H1012   0.990       .  S
Zr989       O994   2.387       .  S
Zr990       O996   2.385       .  S
O991        H999   0.966       .  S
O994        H998   0.966       .  S
O995       H1000   0.966       .  S
O1013     Zr1025   2.434       .  S
O1014     Zr1051   2.429       .  S
C1015      C1277   1.433       .  S
O1016     Zr1028   2.440       .  S
O1016      C1018   1.285       .  A
O1017     Zr1052   2.423       .  S
O1017      C1018   1.284       .  A
C1018      C1369   1.431       .  S
O1019     Zr1028   2.433       .  S
O1019      C1021   1.285       .  A
O1020      C1021   1.284       .  A
C1021      C1380   1.428       .  S
O1022     Zr1025   2.436       .  S
O1023     Zr1052   2.428       .  S
O1023      C1024   1.285       .  A
C1024      C1273   1.435       .  S
Zr1025     O1027   2.435       .  S
Zr1025     O1055   2.368       .  S
Zr1025     O1057   2.367       .  S
O1026      H1069   0.990       .  S
O1027      H1068   0.990       .  S
O1027      H1072   0.990       .  S
Zr1028     O1029   2.437       .  S
Zr1028     O1030   2.434       .  S
Zr1028     O1032   2.370       .  S
Zr1028     O1031   2.370       .  S
Zr1028     O1056   2.371       .  S
Zr1028     O1058   2.371       .  S
O1029      H1070   0.990       .  S
O1029      H1073   0.990       .  S
O1030      H1063   0.990       .  S
O1032     Zr1052   2.381       .  S
O1032      H1059   0.966       .  S
O1033     Zr1045   2.432       .  S
O1033      C1035   1.285       .  A
O1034      C1035   1.285       .  A
C1035      C1368   1.432       .  S
O1036     Zr1048   2.459       .  S
C1038      C1269   1.442       .  S
O1039     Zr1048   2.462       .  S
O1040     Zr1052   2.422   1_554  S
C1041      C1293   1.443       .  S
O1042     Zr1045   2.434       .  S
O1042      C1044   1.285       .  A
O1043     Zr1051   2.425       .  S
O1043      C1044   1.285       .  A
C1044      C1376   1.431       .  S
Zr1045     O1046   2.434       .  S
Zr1045     O1047   2.435       .  S
Zr1045     O1053   2.369       .  S
Zr1045     O1054   2.367       .  S
Zr1045     O1057   2.371       .  S
Zr1045     O1055   2.373       .  S
O1046      H1066   0.990       .  S
O1046      H1071   0.990       .  S
O1047      H1067   0.990       .  S
Zr1048     O1050   2.433   1_554  S
Zr1048     O1058   2.379   1_554  S
Zr1048     O1056   2.378   1_554  S
O1049      H1065   0.990       .  S
O1050      H1064   0.990       .  S
O1050      H1074   0.990       .  S
Zr1051     O1054   2.382       .  S
Zr1051     O1057   2.381       .  S
Zr1052     O1058   2.384       .  S
O1053      H1061   0.966       .  S
O1056      H1060   0.966       .  S
O1057      H1062   0.966       .  S
O1075     Zr1087   2.439       .  S
O1075      C1077   1.286       .  A
O1076     Zr1113   2.427       .  S
O1076      C1077   1.286       .  A
C1077      C1388   1.435       .  S
O1078     Zr1090   2.438       .  S
O1079     Zr1114   2.430   1_556  S
O1079      C1080   1.286       .  A
C1080      C1265   1.436       .  S
O1081     Zr1090   2.437       .  S
C1083      C1280   1.434       .  S
O1084     Zr1087   2.441       .  S
O1084      C1086   1.286       .  A
O1085     Zr1114   2.426   1_556  S
O1085      C1086   1.285       .  A
C1086      C1329   1.434       .  S
Zr1087     O1088   2.433       .  S
Zr1087     O1089   2.435       .  S
Zr1087     O1093   2.371       .  S
Zr1087     O1094   2.372       .  S
Zr1087     O1117   2.370       .  S
Zr1087     O1119   2.371       .  S
O1088      H1131   0.990       .  S
O1089      H1130   0.990       .  S
O1089      H1134   0.990       .  S
Zr1090     O1092   2.434       .  S
Zr1090     O1118   2.364       .  S
Zr1090     O1120   2.367       .  S
O1091      H1132   0.990       .  S
O1091      H1135   0.990       .  S
O1092      H1125   0.990       .  S
O1093     Zr1113   2.379       .  S
O1094     Zr1114   2.383   1_556  S
O1094      H1121   0.966       .  S
O1095     Zr1107   2.461       .  S
O1096     Zr1114   2.423       .  S
C1097      C1300   1.441       .  S
O1098     Zr1110   2.435       .  S
O1098      C1100   1.285       .  A
O1099      C1100   1.286       .  A
C1100      C1384   1.432       .  S
O1101     Zr1110   2.430       .  S
O1101      C1103   1.284       .  A
O1102      C1103   1.285       .  A
C1103      C1325   1.430       .  S
O1104     Zr1107   2.455       .  S
O1105     Zr1113   2.425   1_554  S
C1106      C1281   1.440       .  S
Zr1107     O1109   2.434   1_554  S
Zr1107     O1119   2.379   1_554  S
Zr1107     O1117   2.377   1_554  S
O1108      H1128   0.990       .  S
O1108      H1133   0.990       .  S
O1109      H1129   0.990       .  S
Zr1110     O1111   2.435       .  S
Zr1110     O1112   2.437       .  S
Zr1110     O1116   2.371       .  S
Zr1110     O1115   2.372       .  S
Zr1110     O1120   2.372       .  S
Zr1110     O1118   2.369       .  S
O1111      H1127   0.990       .  S
O1112      H1126   0.990       .  S
O1112      H1136   0.990       .  S
Zr1113     O1119   2.387       .  S
Zr1114     O1117   2.383   1_554  S
O1115      H1123   0.966       .  S
O1118      H1122   0.966       .  S
O1119      H1124   0.966       .  S
O1137     Zr1149   2.441       .  S
C1139      C1276   1.435       .  S
O1140     Zr1152   2.442       .  S
O1140      C1142   1.286       .  A
O1141     Zr1176   2.428   1_556  S
O1141      C1142   1.286       .  A
C1142      C1337   1.434       .  S
O1143     Zr1152   2.441       .  S
O1143      C1145   1.286       .  A
O1144     Zr1175   2.422       .  S
O1144      C1145   1.284       .  A
C1145      C1364   1.435       .  S
O1146     Zr1149   2.441       .  S
C1148      C1268   1.436       .  S
Zr1149     O1151   2.435       .  S
Zr1149     O1179   2.367       .  S
Zr1149     O1181   2.367       .  S
O1150      H1193   0.990       .  S
O1151      H1192   0.990       .  S
O1151      H1196   0.990       .  S
Zr1152     O1153   2.436       .  S
Zr1152     O1154   2.435       .  S
Zr1152     O1156   2.374       .  S
Zr1152     O1155   2.371       .  S
Zr1152     O1180   2.370       .  S
Zr1152     O1182   2.372       .  S
O1153      H1194   0.990       .  S
O1153      H1197   0.990       .  S
O1154      H1187   0.990       .  S
O1155     Zr1175   2.379       .  S
O1156     Zr1176   2.385   1_556  S
O1156      H1183   0.966       .  S
O1157     Zr1169   2.436       .  S
O1157      C1159   1.285       .  A
O1158      C1159   1.285       .  A
C1159      C1336   1.431       .  S
O1160     Zr1172   2.464       .  S
O1161     Zr1175   2.421   1_554  S
C1162      C1285   1.443       .  S
O1163     Zr1172   2.460       .  S
O1164     Zr1176   2.420       .  S
C1165      C1261   1.442       .  S
O1166     Zr1169   2.438       .  S
O1166      C1168   1.285       .  A
O1167      C1168   1.286       .  A
C1168      C1357   1.435       .  S
Zr1169     O1170   2.434       .  S
Zr1169     O1171   2.432       .  S
Zr1169     O1177   2.369       .  S
Zr1169     O1178   2.371       .  S
Zr1169     O1181   2.370       .  S
Zr1169     O1179   2.371       .  S
O1170      H1190   0.990       .  S
O1170      H1195   0.990       .  S
O1171      H1191   0.990       .  S
Zr1172     O1174   2.435   1_554  S
Zr1172     O1182   2.379   1_554  S
Zr1172     O1180   2.379   1_554  S
O1173      H1189   0.990       .  S
O1174      H1188   0.990       .  S
O1174      H1198   0.990       .  S
Zr1175     O1180   2.389       .  S
Zr1176     O1182   2.385   1_554  S
O1177      H1185   0.966       .  S
O1180      H1184   0.966       .  S
O1181      H1186   0.965       .  S
O1199     Zr1211   2.437       .  S
O1199      C1201   1.286       .  A
O1200     Zr1237   2.425       .  S
O1200      C1201   1.285       .  A
C1201      C1401   1.435       .  S
O1202     Zr1214   2.439       .  S
O1203     Zr1238   2.431       .  S
O1203      C1204   1.286   1_556  A
C1204      C1305   1.436       .  S
O1205     Zr1214   2.440       .  S
C1207      C1289   1.436       .  S
O1208     Zr1211   2.437       .  S
O1208      C1210   1.285       .  A
O1209     Zr1238   2.429       .  S
O1209      C1210   1.286       .  A
C1210      C1313   1.433       .  S
Zr1211     O1212   2.434       .  S
Zr1211     O1213   2.434       .  S
Zr1211     O1217   2.371       .  S
Zr1211     O1218   2.373       .  S
Zr1211     O1241   2.372       .  S
Zr1211     O1243   2.370       .  S
O1212      H1255   0.990       .  S
O1213      H1254   0.990       .  S
O1213      H1258   0.990       .  S
Zr1214     O1216   2.433       .  S
Zr1214     O1242   2.367       .  S
Zr1214     O1244   2.370       .  S
O1215      H1256   0.990       .  S
O1215      H1259   0.990       .  S
O1216      H1249   0.990       .  S
O1217     Zr1237   2.378       .  S
O1218     Zr1238   2.384       .  S
O1218      H1245   0.966       .  S
O1219     Zr1231   2.460       .  S
O1220     Zr1238   2.420   1_554  S
C1221      C1264   1.442       .  S
O1222     Zr1234   2.433       .  S
O1222      C1224   1.285       .  A
O1223      C1224   1.286       .  A
C1224      C1397   1.432       .  S
O1225     Zr1234   2.434       .  S
O1225      C1227   1.285       .  A
O1226      C1227   1.286       .  A
C1227      C1309   1.433       .  S
O1228     Zr1231   2.461       .  S
O1229     Zr1237   2.420   1_554  S
C1230      C1272   1.442       .  S
Zr1231     O1233   2.434   1_554  S
Zr1231     O1243   2.378   1_554  S
Zr1231     O1241   2.381   1_554  S
O1232      H1252   0.990       .  S
O1232      H1257   0.990       .  S
O1233      H1253   0.990       .  S
Zr1234     O1235   2.435       .  S
Zr1234     O1236   2.436       .  S
Zr1234     O1240   2.369       .  S
Zr1234     O1239   2.371       .  S
Zr1234     O1244   2.374       .  S
Zr1234     O1242   2.371       .  S
O1235      H1251   0.990       .  S
O1236      H1250   0.990       .  S
O1236      H1260   0.990       .  S
Zr1237     O1243   2.389       .  S
Zr1238     O1241   2.386       .  S
O1239      H1247   0.966       .  S
O1242      H1246   0.966       .  S
O1243      H1248   0.966       .  S
C1261      C1262   1.210       .  T
C1262      C1263   1.418       .  S
C1263      C1264   1.210       .  T
C1265      C1266   1.206   1_556  T
C1266      C1267   1.413       .  S
C1267      C1268   1.206       .  T
C1269      C1270   1.210       .  T
C1270      C1271   1.418   1_565  S
C1271      C1272   1.210       .  T
C1273      C1274   1.205       .  T
C1274      C1275   1.412       .  S
C1275      C1276   1.206       .  T
C1277      C1278   1.204       .  T
C1278      C1279   1.410       .  S
C1279      C1280   1.205       .  T
C1281      C1282   1.209       .  T
C1282      C1283   1.417   1_565  S
C1283      C1284   1.209       .  T
C1285      C1286   1.210       .  T
C1286      C1287   1.419   1_455  S
C1287      C1288   1.210       .  T
C1289      C1290   1.206       .  T
C1290      C1291   1.413       .  S
C1291      C1292   1.206       .  T
C1293      C1294   1.210       .  T
C1294      C1295   1.420   1_455  S
C1295      C1296   1.211       .  T
C1297      C1298   1.209       .  T
C1298      C1299   1.418       .  S
C1299      C1300   1.209       .  T
C1301      C1302   1.205       .  T
C1302      C1303   1.411       .  S
C1303      C1304   1.205       .  T
C1305      C1306   1.207       .  T
C1306      C1307   1.413       .  S
C1307      C1308   1.206       .  T
C1309      C1310   1.205       .  T
C1310      C1311   1.411       .  S
C1311      C1312   1.205       .  T
C1313      C1314   1.205       .  T
C1314      C1315   1.410       .  S
C1315      C1316   1.205       .  T
C1317      C1318   1.205       .  T
C1318      C1319   1.410       .  S
C1319      C1320   1.205       .  T
C1321      C1322   1.206       .  T
C1322      C1323   1.413       .  S
C1323      C1324   1.206       .  T
C1325      C1326   1.203       .  T
C1326      C1327   1.408       .  S
C1327      C1328   1.203       .  T
C1329      C1330   1.205       .  T
C1330      C1331   1.411       .  S
C1331      C1332   1.205       .  T
C1333      C1334   1.204       .  T
C1334      C1335   1.409       .  S
C1335      C1336   1.204       .  T
C1337      C1338   1.205       .  T
C1338      C1339   1.411       .  S
C1339      C1340   1.205       .  T
C1341      C1342   1.206       .  T
C1342      C1343   1.412       .  S
C1343      C1344   1.206       .  T
C1345      C1346   1.207       .  T
C1346      C1347   1.414       .  S
C1347      C1348   1.207       .  T
C1349      C1350   1.203       .  T
C1350      C1351   1.408       .  S
C1351      C1352   1.203       .  T
C1353      C1354   1.204       .  T
C1354      C1355   1.410       .  S
C1355      C1356   1.204       .  T
C1357      C1358   1.206       .  T
C1358      C1359   1.412       .  S
C1359      C1360   1.206       .  T
C1361      C1362   1.206       .  T
C1362      C1363   1.412       .  S
C1363      C1364   1.206       .  T
C1365      C1366   1.204       .  T
C1366      C1367   1.409       .  S
C1367      C1368   1.204       .  T
C1369      C1370   1.204       .  T
C1370      C1371   1.409       .  S
C1371      C1372   1.204       .  T
C1373      C1374   1.204       .  T
C1374      C1375   1.409       .  S
C1375      C1376   1.204       .  T
C1377      C1378   1.202       .  T
C1378      C1379   1.406       .  S
C1379      C1380   1.202       .  T
C1381      C1382   1.204       .  T
C1382      C1383   1.410       .  S
C1383      C1384   1.204       .  T
C1385      C1386   1.206       .  T
C1386      C1387   1.412       .  S
C1387      C1388   1.206       .  T
C1389      C1390   1.204       .  T
C1390      C1391   1.410       .  S
C1391      C1392   1.204       .  T
C1393      C1394   1.204       .  T
C1394      C1395   1.410       .  S
C1395      C1396   1.204       .  T
C1397      C1398   1.204       .  T
C1398      C1399   1.410       .  S
C1399      C1400   1.204       .  T
C1401      C1402   1.206       .  T
C1402      C1403   1.412       .  S
C1403      C1404   1.206       .  T
