geometry optimzed in LAMMPS
_audit_creation_date              2020-11-30 
_audit_creation_method            'lammps2cif' 
_symmetry_space_group_name_H-M    'P1' 
_symmetry_Int_Tables_number       1 
_symmetry_cell_setting            triclinic 
loop_ 
_symmetry_equiv_pos_as_xyz 
  x,y,z 
_cell_length_a                    36.13436112399873 
_cell_length_b                    31.778837141498368 
_cell_length_c                    28.198260819076847 
_cell_angle_alpha                 88.64173713860087 
_cell_angle_beta                  87.34825162420336 
_cell_angle_gamma                 124.67425830052593 
loop_ 
_atom_site_label 
_atom_site_type_symbol 
_atom_site_fract_x 
_atom_site_fract_y 
_atom_site_fract_z 
_atom_site_charge 
C1          C  0.33768679  0.19124128  0.02643946    -0.00690
C2          C  0.33981481  0.18857204  0.23946723    -0.00690
C3          C  0.16623876  0.33403663  0.42660335    -0.00690
C4          C  0.16300521  0.33249657  0.21254624    -0.00690
C5          C  0.42100770  0.08047893  0.49480022     0.78250
Tb6        Tb  0.05253949  0.00609389  0.47850054     1.80740
O7          O  0.42670181  0.06548046  0.45596806    -0.49770
O8          O  0.38862813  0.45796135  0.44130734    -0.57220
C9          C  0.05660708  0.11601634  0.47830803     0.94060
O10         O  0.12786935  0.07229259  0.95510902    -0.56750
Tb11       Tb  0.44833792  0.01395649  0.48749933     1.78060
O12         O  0.05443571  0.43473181  0.49818836    -0.57250
O13         O  0.43787274  0.43711635  0.51276530    -0.76050
O14         O  0.01469717  0.09658931  0.48018798    -0.75370
O15         O  0.47120295  0.01130246  0.06394204    -0.60630
C16         C  0.44614728  0.41217630  0.48508337     0.93650
O17         O  0.03639938  0.01627295  0.40161778    -0.72580
C18         C  0.08077398  0.94174784  0.46307130     0.77100
C19         C  0.35672444  0.44480562  0.47198855     0.78080
O20         O  0.42983709  0.06338568  0.03023528    -0.57830
O21         O  0.37047381  0.46389138  0.01144910    -0.49780
O22         O  0.02610266  0.99803906  0.05821133    -0.75840
O23         O  0.47347129  0.01477482  0.40836901    -0.59840
C24         C  0.50450103  0.01576706  0.38367675     0.91870
C25         C  0.49881777  0.00385086  0.08244165     0.93100
C26         C  0.14431043  0.07053965  0.99309653     0.77450
O27         O  0.09044024  0.97813094  0.43439445    -0.49160
O28         O  0.11490676  0.53776491  0.02433551    -0.50320
O29         O  0.48229788  0.43521575  0.45835800    -0.63170
O30         O  0.07274763  0.08965871  0.47818768    -0.64310
C31         C  0.41492149  0.06576506  0.25037190     0.78250
Tb32       Tb  0.05828081  0.01156462  0.22949412     1.80740
O33         O  0.43730710  0.06676737  0.21443674    -0.49770
O34         O  0.38741986  0.46121411  0.18207848    -0.57220
C35         C  0.04930910  0.11049683  0.20772356     0.94060
O36         O  0.13175296  0.08733095  0.22139730    -0.56750
Tb37       Tb  0.44354774  0.00139548  0.23749598     1.78060
O38         O  0.08830954  0.46369664  0.24195763    -0.57250
O39         O  0.43053385  0.42344107  0.26377606    -0.76050
O40         O  0.00786025  0.08532959  0.22216074    -0.75370
O41         O  0.46878704  0.00964549  0.31359213    -0.60630
C42         C  0.45334607  0.40449337  0.26411647     0.93650
O43         O  0.03310400  0.00636086  0.15304829    -0.72580
C44         C  0.09203588  0.95448730  0.19965489     0.77100
C45         C  0.35463388  0.43398887  0.21239364     0.78080
O46         O  0.40747646  0.03298552  0.28249771    -0.57830
O47         O  0.36620389  0.43953221  0.25450008    -0.49780
O48         O  0.03314322  0.01445709  0.30709796    -0.75840
O49         O  0.46787010  0.99986177  0.15932945    -0.59840
C50         C  0.49982822  0.00279714  0.13490222     0.91870
C51         C  0.50224712  0.01380135  0.33149520     0.93100
C52         C  0.14647636  0.07780049  0.25680655     0.77450
O53         O  0.07804069  0.97271862  0.17104261    -0.49160
O54         O  0.11689497  0.53663365  0.27975617    -0.50320
O55         O  0.49539906  0.43051739  0.25334183    -0.63170
O56         O  0.07089018  0.08995616  0.20389983    -0.64310
C57         C  0.08282042  0.24765502  0.21167852     0.25390
C58         C  0.12954197  0.27635928  0.19634046    -0.22710
C59         C  0.14406109  0.24932911  0.17113062     0.20300
C60         C  0.11722746  0.19557307  0.17270578     0.25340
C61         C  0.07396851  0.16704942  0.19656471    -0.22660
C62         C  0.05576336  0.19396710  0.21220009     0.20240
F63         F  0.01334838  0.16874292  0.23327876    -0.12620
F64         F  0.06526532  0.27059273  0.23418389    -0.14980
F65         F  0.13438187  0.17152385  0.15176808    -0.14980
F66         F  0.18460713  0.27394774  0.14583561    -0.12620
C67         C  0.17793588  0.42401837  0.19708712     0.25390
C68         C  0.15150250  0.37029547  0.19029674    -0.22710
C69         C  0.11143841  0.35302279  0.16651581     0.20300
C70         C  0.09190584  0.38087771  0.16714763     0.25340
C71         C  0.11426123  0.42882720  0.18667938    -0.22660
C72         C  0.15871589  0.45162421  0.19782029     0.20240
F73         F  0.18419143  0.00156691  0.20858467    -0.12620
F74         F  0.22342712  0.45249247  0.19726596    -0.14980
F75         F  0.05074348  0.36023731  0.15018882    -0.14980
F76         F  0.09137831  0.31039477  0.14140473    -0.12620
C77         C  0.23134934  0.33008547  0.22870804     0.25390
C78         C  0.21278312  0.35048398  0.20050261    -0.22710
C79         C  0.24225499  0.38817294  0.16418491     0.20300
C80         C  0.28927235  0.41420900  0.16566376     0.25340
C81         C  0.30705423  0.40028037  0.20125148    -0.22660
C82         C  0.27776439  0.35575069  0.23019912     0.20240
F83         F  0.29411249  0.33815560  0.26159360    -0.12620
F84         F  0.20472366  0.28671608  0.25716467    -0.14980
F85         F  0.31719322  0.95523501  0.13479731    -0.14980
F86         F  0.22603907  0.40119461  0.12841404    -0.12620
C87         C  0.10987432  0.25792706  0.48918254     0.25390
C88         C  0.14349580  0.27916156  0.45068574    -0.22710
C89         C  0.15534731  0.24681488  0.43228702     0.20300
C90         C  0.12750060  0.19405898  0.44235055     0.25340
C91         C  0.08887782  0.17225934  0.47356991    -0.22660
C92         C  0.08160739  0.20467891  0.49894294     0.20240
F93         F  0.04700379  0.18480199  0.03293603    -0.12620
F94         F  0.10352576  0.28780378  0.01710870    -0.14980
F95         F  0.13571307  0.16391220  0.41729359    -0.14980
F96         F  0.19001275  0.26472140  0.39890698    -0.12620
C97         C  0.14840821  0.44022498  0.45742705     0.25390
C98         C  0.10151431  0.41359711  0.45771960    -0.22710
C99         C  0.07568105  0.36143778  0.45024255     0.20300
C100        C  0.09660802  0.33651552  0.44069591     0.25340
C101        C  0.14397867  0.36166579  0.44352919    -0.22660
C102        C  0.16943432  0.41475559  0.45219275     0.20240
F103        F  0.21511084  0.44420228  0.45123629    -0.12620
F104        F  0.17444146  0.99180911  0.46054657    -0.14980
F105        F  0.07010042  0.28762394  0.42745420    -0.14980
F106        F  0.03031306  0.33514607  0.44890466    -0.12620
C107        C  0.22894755  0.37367061  0.48527910     0.25390
C108        C  0.21692194  0.36208687  0.43778259    -0.22710
C109        C  0.25191396  0.37240563  0.40358784     0.20300
C110        C  0.29660513  0.39795429  0.41530011     0.25340
C111        C  0.30845735  0.41301054  0.46158495    -0.22660
C112        C  0.27400328  0.39961812  0.49672843     0.20240
F113        F  0.28384142  0.41218473  0.04228319    -0.12620
F114        F  0.19706843  0.36161932  0.52065191    -0.14980
F115        F  0.32843483  0.40788051  0.38064564    -0.14980
F116        F  0.24376507  0.35577360  0.35896209    -0.12620
C117        C  0.13295874  0.28649919  0.29986103     0.25390
C118        C  0.15868205  0.33224118  0.26923359    -0.22710
C119        C  0.18647432  0.37777238  0.29346631     0.20300
C120        C  0.18488012  0.37839355  0.34291732     0.25340
C121        C  0.16007329  0.33261860  0.37203389    -0.22660
C122        C  0.13015270  0.28753800  0.34908272     0.20240
F123        F  0.09815641  0.24274489  0.37332836    -0.12620
F124        F  0.11699824  0.23928129  0.28491973    -0.14980
F125        F  0.21346009  0.42404077  0.36186137    -0.14980
F126        F  0.22260828  0.42042923  0.27131967    -0.12620
C127        C  0.26135887  0.11067448  0.27982834     0.25390
C128        C  0.28987940  0.16216967  0.26026180    -0.22710
C129        C  0.26837277  0.18721958  0.24948432     0.20300
C130        C  0.22162520  0.16075590  0.25200682     0.25340
C131        C  0.19434587  0.10898965  0.26708411    -0.22660
C132        C  0.21441808  0.08532393  0.28442508     0.20240
F133        F  0.18838167  0.53527084  0.30048485    -0.12620
F134        F  0.27662171  0.08128484  0.28862816    -0.14980
F135        F  0.20301106  0.18511383  0.23651991    -0.14980
F136        F  0.29259580  0.23632505  0.23074683    -0.12620
C137        C  0.41988605  0.27158530  0.24435249     0.25390
C138        C  0.37345011  0.24159048  0.26063960    -0.22710
C139        C  0.36016311  0.26443676  0.29392612     0.20300
C140        C  0.38675445  0.31781764  0.29731707     0.25340
C141        C  0.42949366  0.34834832  0.27272923    -0.22660
C142        C  0.44734104  0.32384026  0.25068112     0.20240
F143        F  0.49007731  0.35101299  0.23005795    -0.12640
F144        F  0.43867743  0.25261266  0.21784886    -0.14980
F145        F  0.37023260  0.33964623  0.32363965    -0.14980
F146        F  0.32127175  0.23638943  0.32212455    -0.12620
C147        C  0.40046432  0.12252845  0.20803125     0.25390
C148        C  0.39808080  0.09855153  0.25123147    -0.22710
C149        C  0.38089773  0.10770250  0.29255931     0.20300
C150        C  0.36437853  0.13868848  0.28963148     0.25340
C151        C  0.36117677  0.15730511  0.24484657    -0.22660
C152        C  0.38406464  0.15215231  0.20503447     0.20240
F153        F  0.39559357  0.17974780  0.16296055    -0.12620
F154        F  0.41969904  0.11844859  0.16736130    -0.14980
F155        F  0.35006323  0.14896510  0.33028371    -0.14980
F156        F  0.38061278  0.08735834  0.33549979    -0.12620
C157        C  0.25752390  0.10441609  0.02516425     0.25390
C158        C  0.28775449  0.15707886  0.00992051    -0.22710
C159        C  0.26967285  0.17547282  0.97803006     0.20300
C160        C  0.22311311  0.14815972  0.97350937     0.25340
C161        C  0.19317806  0.10110181  0.99913259    -0.22660
C162        C  0.21100377  0.07933217  0.02491176     0.20240
F163        F  0.18365476  0.53078166  0.04486628    -0.12620
F164        F  0.27184173  0.07342725  0.02923849    -0.14980
F165        F  0.20756157  0.16783629  0.94358806    -0.14980
F166        F  0.29639322  0.21735530  0.94775742    -0.12620
C167        C  0.42762616  0.32580834  0.46448144     0.25390
C168        C  0.41438970  0.35539779  0.48556902    -0.22710
C169        C  0.37130018  0.32980919  0.50934115     0.20300
C170        C  0.34500276  0.27658492  0.51752162     0.25340
C171        C  0.36198370  0.24723154  0.50427319    -0.22660
C172        C  0.40215029  0.27258953  0.47376481     0.20240
F173        F  0.41792290  0.24712532  0.45303132    -0.12620
F174        F  0.46624943  0.34851176  0.43595539    -0.14980
F175        F  0.30520688  0.25442718  0.04407140    -0.14980
F176        F  0.35534129  0.35629034  0.02729130    -0.12620
C177        C  0.40129561  0.17810793  0.53828109     0.25390
C178        C  0.36429290  0.16770756  0.51254643    -0.22710
C179        C  0.35330083  0.13543107  0.47407990     0.20300
C180        C  0.37240865  0.10784577  0.46784535     0.25340
C181        C  0.40421170  0.11316713  0.49842157    -0.22660
C182        C  0.41959487  0.14974916  0.53255326     0.20240
F183        F  0.45295410  0.15864967  0.56006880    -0.12620
F184        F  0.42029438  0.21598560  0.56902070    -0.14980
F185        F  0.35809282  0.07398725  0.43321294    -0.14980
F186        F  0.32395490  0.13005108  0.94236763    -0.12620
C187        C  0.36017583  0.23930345  0.10755055     0.25390
C188        C  0.33585948  0.19293130  0.08284437    -0.22710
C189        C  0.31380308  0.14732489  0.11251490     0.20300
C190        C  0.30856775  0.14719683  0.16156120     0.25340
C191        C  0.33408568  0.19308803  0.18533154    -0.22660
C192        C  0.35658719  0.23934680  0.15706986     0.20240
F193        F  0.37713900  0.28555145  0.17627474    -0.12620
F194        F  0.39412304  0.28472711  0.08583321    -0.14980
F195        F  0.28639067  0.10088961  0.18613013    -0.14980
F196        F  0.30755934  0.10414511  0.09712401    -0.12620
C197        C  0.33768679  0.19124129  0.52643950    -0.00690
C198        C  0.33981483  0.18857208  0.73946728    -0.00690
C199        C  0.16623875  0.33403661  0.92660336    -0.00690
C200        C  0.16300522  0.33249659  0.71254625    -0.00690
C201        C  0.42100770  0.08047892  0.99480020     0.78250
Tb202      Tb  0.05253947  0.00609387  0.97850054     1.80740
O203        O  0.42670180  0.06548044  0.95596803    -0.49770
O204        O  0.38862812  0.45796134  0.94130734    -0.57220
C205        C  0.05660708  0.11601633  0.97830803     0.94060
O206        O  0.12786937  0.07229262  0.45510903    -0.56750
Tb207      Tb  0.44833792  0.01395648  0.98749933     1.78060
O208        O  0.05443569  0.43473178  0.99818838    -0.57250
O209        O  0.43787273  0.43711633  0.01276528    -0.76050
O210        O  0.01469717  0.09658930  0.98018803    -0.75370
O211        O  0.47120299  0.01130250  0.56394204    -0.60630
C212        C  0.44614727  0.41217629  0.98508334     0.93650
O213        O  0.03639933  0.01627288  0.90161779    -0.72580
C214        C  0.08077398  0.94174782  0.96307136     0.77100
C215        C  0.35672443  0.44480561  0.97198855     0.78080
O216        O  0.42983709  0.06338568  0.53023530    -0.57830
O217        O  0.37047382  0.46389140  0.51144911    -0.49780
O218        O  0.02610270  0.99803909  0.55821133    -0.75840
O219        O  0.47347130  0.01477484  0.90836901    -0.59840
C220        C  0.50450102  0.01576704  0.88367675     0.91870
C221        C  0.49881781  0.00385089  0.58244165     0.93100
C222        C  0.14431044  0.07053965  0.49309653     0.77450
O223        O  0.09044024  0.97813091  0.93439449    -0.49160
O224        O  0.11490678  0.53776492  0.52433550    -0.50320
O225        O  0.48229788  0.43521574  0.95835798    -0.63170
O226        O  0.07274762  0.08965869  0.97818763    -0.64310
C227        C  0.41492148  0.06576506  0.75037189     0.78250
Tb228      Tb  0.05828083  0.01156464  0.72949415     1.80740
O229        O  0.43730701  0.06676730  0.71443669    -0.49770
O230        O  0.38741985  0.46121417  0.68207849    -0.57220
C231        C  0.04930914  0.11049686  0.70772354     0.94060
O232        O  0.13175298  0.08733098  0.72139728    -0.56750
Tb233      Tb  0.44354775  0.00139550  0.73749597     1.78060
O234        O  0.08830989  0.46369701  0.74195760    -0.57250
O235        O  0.43053388  0.42344106  0.76377589    -0.76050
O236        O  0.00786026  0.08532960  0.72216064    -0.75370
O237        O  0.46878706  0.00964555  0.81359212    -0.60630
C238        C  0.45334613  0.40449339  0.76411652     0.93650
O239        O  0.03310407  0.00636094  0.65304830    -0.72580
C240        C  0.09203592  0.95448734  0.69965492     0.77100
C241        C  0.35463389  0.43398888  0.71239366     0.78080
O242        O  0.40747654  0.03298559  0.78249775    -0.57830
O243        O  0.36620392  0.43953218  0.75450009    -0.49780
O244        O  0.03314318  0.01445702  0.80709798    -0.75840
O245        O  0.46787013  0.99986180  0.65932944    -0.59840
C246        C  0.49982826  0.00279718  0.63490222     0.91870
C247        C  0.50224711  0.01380135  0.83149520     0.93100
C248        C  0.14647638  0.07780057  0.75680655     0.77450
O249        O  0.07804021  0.97271811  0.67104271    -0.49160
O250        O  0.11689499  0.53663371  0.77975619    -0.50320
O251        O  0.49539915  0.43051743  0.75334205    -0.63170
O252        O  0.07089023  0.08995621  0.70389989    -0.64310
C253        C  0.08282043  0.24765504  0.71167849     0.25390
C254        C  0.12954199  0.27635930  0.69634045    -0.22710
C255        C  0.14406112  0.24932914  0.67113062     0.20300
C256        C  0.11722750  0.19557310  0.67270578     0.25340
C257        C  0.07396854  0.16704944  0.69656468    -0.22660
C258        C  0.05576338  0.19396712  0.71220004     0.20240
F259        F  0.01334839  0.16874293  0.73327868    -0.12620
F260        F  0.06526532  0.27059274  0.73418384    -0.14980
F261        F  0.13438192  0.17152389  0.65176810    -0.14980
F262        F  0.18460717  0.27394778  0.64583563    -0.12620
C263        C  0.17793590  0.42401838  0.69708712     0.25390
C264        C  0.15150252  0.37029549  0.69029673    -0.22710
C265        C  0.11143844  0.35302282  0.66651578     0.20300
C266        C  0.09190588  0.38087776  0.66714760     0.25340
C267        C  0.11426125  0.42882723  0.68667938    -0.22660
C268        C  0.15871591  0.45162423  0.69782030     0.20240
F269        F  0.18419146  0.00156691  0.70858474    -0.12620
F270        F  0.22342714  0.45249248  0.69726597    -0.14980
F271        F  0.05074352  0.36023736  0.65018877    -0.14980
F272        F  0.09137835  0.31039481  0.64140470    -0.12620
C273        C  0.23134935  0.33008549  0.72870808     0.25390
C274        C  0.21278313  0.35048400  0.70050264    -0.22710
C275        C  0.24225501  0.38817295  0.66418493     0.20300
C276        C  0.28927236  0.41420901  0.66566378     0.25340
C277        C  0.30705424  0.40028039  0.70125151    -0.22660
C278        C  0.27776440  0.35575071  0.73019916     0.20240
F279        F  0.29411250  0.33815563  0.76159365    -0.12620
F280        F  0.20472366  0.28671611  0.75716472    -0.14980
F281        F  0.31719322  0.95523498  0.63479732    -0.14980
F282        F  0.22603908  0.40119461  0.62841405    -0.12620
C283        C  0.10987434  0.25792704  0.98918256     0.25390
C284        C  0.14349580  0.27916155  0.95068574    -0.22710
C285        C  0.15534730  0.24681486  0.93228698     0.20300
C286        C  0.12750058  0.19405896  0.94235051     0.25340
C287        C  0.08887783  0.17225932  0.97356990    -0.22660
C288        C  0.08160742  0.20467889  0.99894296     0.20240
F289        F  0.04700374  0.18480201  0.53293598    -0.12620
F290        F  0.10352572  0.28780380  0.51710866    -0.14980
F291        F  0.13571304  0.16391218  0.91729353    -0.14980
F292        F  0.19001272  0.26472137  0.89890692    -0.12620
C293        C  0.14840820  0.44022496  0.95742706     0.25390
C294        C  0.10151430  0.41359708  0.95771964    -0.22710
C295        C  0.07568103  0.36143775  0.95024262     0.20300
C296        C  0.09660801  0.33651548  0.94069597     0.25340
C297        C  0.14397866  0.36166577  0.94352921    -0.22660
C298        C  0.16943431  0.41475558  0.95219276     0.20240
F299        F  0.21511084  0.44420226  0.95123628    -0.12620
F300        F  0.17444147  0.99180910  0.96054660    -0.14980
F301        F  0.07010040  0.28762390  0.92745428    -0.14980
F302        F  0.03031304  0.33514602  0.94890477    -0.12620
C303        C  0.22894754  0.37367060  0.98527910     0.25390
C304        C  0.21692193  0.36208685  0.93778259    -0.22710
C305        C  0.25191395  0.37240562  0.90358784     0.20300
C306        C  0.29660512  0.39795427  0.91530010     0.25340
C307        C  0.30845734  0.41301053  0.96158494    -0.22660
C308        C  0.27400328  0.39961810  0.99672842     0.20240
F309        F  0.28384143  0.41218474  0.54228320    -0.12620
F310        F  0.19706843  0.36161931  0.02065191    -0.14980
F311        F  0.32843482  0.40788050  0.88064563    -0.14980
F312        F  0.24376506  0.35577359  0.85896209    -0.12620
C313        C  0.13295871  0.28649920  0.79986103     0.25390
C314        C  0.15868204  0.33224119  0.76923359    -0.22710
C315        C  0.18647431  0.37777239  0.79346632     0.20300
C316        C  0.18488011  0.37839355  0.84291733     0.25340
C317        C  0.16007327  0.33261860  0.87203390    -0.22660
C318        C  0.13015267  0.28753800  0.84908272     0.20240
F319        F  0.09815637  0.24274490  0.87332836    -0.12620
F320        F  0.11699820  0.23928130  0.78491973    -0.14980
F321        F  0.21346009  0.42404076  0.86186139    -0.14980
F322        F  0.22260827  0.42042924  0.77131968    -0.12620
C323        C  0.26135888  0.11067455  0.77982840     0.25390
C324        C  0.28987942  0.16216974  0.76026185    -0.22710
C325        C  0.26837280  0.18721965  0.74948435     0.20300
C326        C  0.22162523  0.16075597  0.75200682     0.25340
C327        C  0.19434590  0.10898973  0.76708412    -0.22660
C328        C  0.21441809  0.08532400  0.78442511     0.20240
F329        F  0.18838169  0.53527088  0.80048487    -0.12620
F330        F  0.27662172  0.08128491  0.78862826    -0.14980
F331        F  0.20301110  0.18511390  0.73651988    -0.14980
F332        F  0.29259585  0.23632512  0.73074686    -0.12620
C333        C  0.41988607  0.27158533  0.74435253     0.25390
C334        C  0.37345014  0.24159052  0.76063964    -0.22710
C335        C  0.36016315  0.26443681  0.79392617     0.20300
C336        C  0.38675450  0.31781768  0.79731712     0.25340
C337        C  0.42949372  0.34834835  0.77272929    -0.22660
C338        C  0.44734108  0.32384028  0.75068118     0.20240
F339        F  0.49007735  0.35101302  0.73005799    -0.12640
F340        F  0.43867745  0.25261267  0.71784889    -0.14980
F341        F  0.37023266  0.33964629  0.82363969    -0.14980
F342        F  0.32127178  0.23638948  0.82212460    -0.12620
C343        C  0.40046429  0.12252845  0.70803126     0.25390
C344        C  0.39808079  0.09855154  0.75123148    -0.22710
C345        C  0.38089775  0.10770252  0.79255933     0.20300
C346        C  0.36437854  0.13868850  0.78963151     0.25340
C347        C  0.36117678  0.15730514  0.74484661    -0.22660
C348        C  0.38406462  0.15215232  0.70503450     0.20240
F349        F  0.39559355  0.17974782  0.66296058    -0.12620
F350        F  0.41969900  0.11844859  0.66736130    -0.14980
F351        F  0.35006327  0.14896514  0.83028375    -0.14980
F352        F  0.38061282  0.08735837  0.83549981    -0.12620
C353        C  0.25752391  0.10441609  0.52516424     0.25390
C354        C  0.28775450  0.15707888  0.50992054    -0.22710
C355        C  0.26967286  0.17547283  0.47803009     0.20300
C356        C  0.22311312  0.14815973  0.47350940     0.25340
C357        C  0.19317808  0.10110180  0.49913260    -0.22660
C358        C  0.21100378  0.07933217  0.52491175     0.20240
F359        F  0.18365477  0.53078168  0.54486630    -0.12620
F360        F  0.27184177  0.07342726  0.52923846    -0.14980
F361        F  0.20756158  0.16783631  0.44358809    -0.14980
F362        F  0.29639323  0.21735534  0.44775746    -0.12620
C363        C  0.42762615  0.32580833  0.96448140     0.25390
C364        C  0.41438969  0.35539777  0.98556898    -0.22710
C365        C  0.37130017  0.32980917  0.00934111     0.20300
C366        C  0.34500275  0.27658491  0.01752158     0.25340
C367        C  0.36198369  0.24723153  0.00427315    -0.22660
C368        C  0.40215028  0.27258952  0.97376476     0.20240
F369        F  0.41792289  0.24712530  0.95303126    -0.12620
F370        F  0.46624943  0.34851175  0.93595535    -0.14980
F371        F  0.30520689  0.25442720  0.54407144    -0.14980
F372        F  0.35534130  0.35629036  0.52729135    -0.12620
C373        C  0.40129563  0.17810795  0.03828101     0.25390
C374        C  0.36429290  0.16770754  0.01254637    -0.22710
C375        C  0.35330079  0.13543101  0.97407988     0.20300
C376        C  0.37240862  0.10784572  0.96784534     0.25340
C377        C  0.40421169  0.11316712  0.99842152    -0.22660
C378        C  0.41959490  0.14974918  0.03255319     0.20240
F379        F  0.45295415  0.15864973  0.06006869    -0.12620
F380        F  0.42029441  0.21598564  0.06902059    -0.14980
F381        F  0.35809276  0.07398716  0.93321295    -0.14980
F382        F  0.32395497  0.13005117  0.44236763    -0.12620
C383        C  0.36017584  0.23930348  0.60755059     0.25390
C384        C  0.33585948  0.19293132  0.58284441    -0.22710
C385        C  0.31380305  0.14732491  0.61251496     0.20300
C386        C  0.30856774  0.14719687  0.66156126     0.25340
C387        C  0.33408569  0.19308807  0.68533158    -0.22660
C388        C  0.35658721  0.23934683  0.65706990     0.20240
F389        F  0.37713905  0.28555149  0.67627477    -0.12620
F390        F  0.39412306  0.28472712  0.58583324    -0.14980
F391        F  0.28639064  0.10088965  0.68613019    -0.14980
F392        F  0.30755922  0.10414509  0.59712407    -0.12620
C393        C  0.33763759  0.69123785  0.02640128    -0.00690
C394        C  0.33976282  0.68856766  0.23942568    -0.00690
C395        C  0.16628640  0.83403116  0.42661249    -0.00690
C396        C  0.16305399  0.83250195  0.21255323    -0.00690
C397        C  0.42096922  0.58048292  0.49479825     0.78250
Tb398      Tb  0.05248265  0.50607825  0.47849266     1.80740
O399        O  0.42668734  0.56550738  0.45596364    -0.49770
O400        O  0.38867139  0.95794287  0.44131692    -0.57220
C401        C  0.05656481  0.61600832  0.47831629     0.94060
O402        O  0.12780921  0.57228051  0.95508257    -0.56750
Tb403      Tb  0.44829460  0.51395812  0.48749733     1.78060
O404        O  0.05451296  0.93476140  0.49819576    -0.57250
O405        O  0.43792993  0.93712486  0.51277347    -0.76050
O406        O  0.01465724  0.59659038  0.48015733    -0.75370
O407        O  0.47118211  0.51132559  0.06393368    -0.60630
C408        C  0.44619613  0.91217966  0.48508968     0.93650
O409        O  0.03634542  0.51627338  0.40161295    -0.72580
C410        C  0.08068495  0.44170511  0.46305651     0.77100
C411        C  0.35676821  0.94478545  0.47199965     0.78080
O412        O  0.42977459  0.56336763  0.03023686    -0.57830
O413        O  0.37051847  0.96388236  0.01145604    -0.49780
O414        O  0.02605459  0.49801789  0.05820647    -0.75840
O415        O  0.47340992  0.51475936  0.40836725    -0.59840
C416        C  0.50444164  0.51575751  0.38367408     0.91870
C417        C  0.49878627  0.50385677  0.08243478     0.93100
C418        C  0.14426417  0.57051467  0.99305428     0.77450
O419        O  0.09035160  0.47808616  0.43437633    -0.49160
O420        O  0.11494320  0.03780169  0.02437833    -0.50320
O421        O  0.48235769  0.93520833  0.45838096    -0.63170
O422        O  0.07269733  0.58964273  0.47823031    -0.64310
C423        C  0.41488373  0.56577154  0.25034903     0.78250
Tb424      Tb  0.05823577  0.51156336  0.22950280     1.80740
O425        O  0.43731008  0.56681148  0.21443273    -0.49770
O426        O  0.38746253  0.96116636  0.18207968    -0.57220
C427        C  0.04928855  0.61050144  0.20771997     0.94060
O428        O  0.13170292  0.58735235  0.22137929    -0.56750
Tb429      Tb  0.44352044  0.50141199  0.23748263     1.78060
O430        O  0.08804292  0.96337329  0.24199138    -0.57250
O431        O  0.43057313  0.92345978  0.26388733    -0.76050
O432        O  0.00784944  0.58535033  0.22219763    -0.75370
O433        O  0.46872597  0.50963613  0.31359091    -0.60630
C434        C  0.45336634  0.90448545  0.26407743     0.93650
O435        O  0.03306889  0.50636093  0.15304671    -0.72580
C436        C  0.09199695  0.45448695  0.19966291     0.77100
C437        C  0.35466867  0.93396010  0.21239000     0.78080
O438        O  0.40741474  0.53297124  0.28246474    -0.57830
O439        O  0.36622674  0.93952215  0.25450134    -0.49780
O440        O  0.03307852  0.51444319  0.30709755    -0.75840
O441        O  0.46784704  0.49989133  0.15931706    -0.59840
C442        C  0.49979969  0.50281057  0.13489512     0.91870
C443        C  0.50218397  0.51378921  0.33149451     0.93100
C444        C  0.14643636  0.57783990  0.25679251     0.77450
O445        O  0.07768468  0.47238481  0.17109640    -0.49160
O446        O  0.11692704  0.03659128  0.27976096    -0.50320
O447        O  0.49539970  0.93049334  0.25318452    -0.63170
O448        O  0.07085058  0.58994157  0.20385248    -0.64310
C449        C  0.08285397  0.74767927  0.21170292     0.25390
C450        C  0.12957237  0.77636633  0.19635202    -0.22710
C451        C  0.14406860  0.74932355  0.17112641     0.20300
C452        C  0.11721673  0.69556748  0.17269444     0.25340
C453        C  0.07396274  0.66705732  0.19656644    -0.22660
C454        C  0.05577947  0.69399156  0.21222074     0.20240
F455        F  0.01336848  0.66878218  0.23330826    -0.12620
F456        F  0.06531902  0.77063301  0.23421848    -0.14980
F457        F  0.13434915  0.67150466  0.15173682    -0.14980
F458        F  0.18460871  0.77392968  0.14582088    -0.12620
C459        C  0.17798264  0.92402966  0.19712410     0.25390
C460        C  0.15155400  0.87030864  0.19031832    -0.22710
C461        C  0.11149706  0.85304052  0.16652624     0.20300
C462        C  0.09196091  0.88088979  0.16716024     0.25340
C463        C  0.11431248  0.92883938  0.18668943    -0.22660
C464        C  0.15876231  0.95163705  0.19784452     0.20240
F465        F  0.18415193  0.50155550  0.20855711    -0.12620
F466        F  0.22347251  0.95250360  0.19731450    -0.14980
F467        F  0.05080340  0.86025150  0.15018963    -0.14980
F468        F  0.09144571  0.81042030  0.14140411    -0.12620
C469        C  0.23138564  0.83005564  0.22867501     0.25390
C470        C  0.21282487  0.85047538  0.20048998    -0.22710
C471        C  0.24230004  0.88818362  0.16418698     0.20300
C472        C  0.28931633  0.91420955  0.16566401     0.25340
C473        C  0.30709318  0.90025599  0.20123583    -0.22660
C474        C  0.27780021  0.85571319  0.23016543     0.20240
F475        F  0.29414524  0.83810148  0.26154581    -0.12620
F476        F  0.20475496  0.78667789  0.25711995    -0.14980
F477        F  0.31714481  0.45521741  0.13477839    -0.14980
F478        F  0.22608933  0.90123316  0.12843272    -0.12620
C479        C  0.10988470  0.75793242  0.48918504     0.25390
C480        C  0.14351719  0.77915265  0.45069897    -0.22710
C481        C  0.15534795  0.74678498  0.43230921     0.20300
C482        C  0.12747232  0.69402896  0.44236267     0.25340
C483        C  0.08884782  0.67224901  0.47357559    -0.22660
C484        C  0.08159384  0.70468431  0.49894236     0.20240
F485        F  0.04698328  0.68482325  0.03292490    -0.12620
F486        F  0.10354935  0.78782382  0.01710396    -0.14980
F487        F  0.13565658  0.66386441  0.41729726    -0.14980
F488        F  0.19001889  0.76467340  0.39894030    -0.12620
C489        C  0.14849046  0.94024557  0.45746751     0.25390
C490        C  0.10159907  0.91363515  0.45773038    -0.22710
C491        C  0.07575994  0.86148513  0.45021536     0.20300
C492        C  0.09667626  0.83655171  0.44067020     0.25340
C493        C  0.14404159  0.86168096  0.44352625    -0.22660
C494        C  0.16950638  0.91476513  0.45221449     0.20240
F495        F  0.21518227  0.94419657  0.45126854    -0.12620
F496        F  0.17435171  0.49179528  0.46045446    -0.14980
F497        F  0.07016295  0.78766810  0.42741025    -0.14980
F498        F  0.03039643  0.83521399  0.44884398    -0.12620
C499        C  0.22899068  0.87364184  0.48529546     0.25390
C500        C  0.21696595  0.86205874  0.43779884    -0.22710
C501        C  0.25195484  0.87235818  0.40360901     0.20300
C502        C  0.29664566  0.89790443  0.41532132     0.25340
C503        C  0.30850000  0.91297637  0.46160186    -0.22660
C504        C  0.27404652  0.89958765  0.49674511     0.20240
F505        F  0.28388571  0.91215849  0.04229894    -0.12620
F506        F  0.19711181  0.86159637  0.52066649    -0.14980
F507        F  0.32847310  0.90781490  0.38067087    -0.14980
F508        F  0.24380300  0.85571268  0.35898788    -0.12620
C509        C  0.13301690  0.78650344  0.29986563     0.25390
C510        C  0.15874774  0.83224560  0.26924073    -0.22710
C511        C  0.18655767  0.87777148  0.29347347     0.20300
C512        C  0.18495850  0.87839249  0.34292501     0.25340
C513        C  0.16013216  0.83261714  0.37204075    -0.22660
C514        C  0.13020636  0.78754084  0.34908635     0.20240
F515        F  0.09819601  0.74275113  0.37332684    -0.12620
F516        F  0.11704820  0.73928407  0.28492178    -0.14980
F517        F  0.21354800  0.92403490  0.36187299    -0.14980
F518        F  0.22271037  0.92041169  0.27132706    -0.12620
C519        C  0.26131338  0.61069878  0.27981553     0.25390
C520        C  0.28983787  0.66218961  0.26024183    -0.22710
C521        C  0.26834026  0.68725180  0.24947244     0.20300
C522        C  0.22159240  0.66079373  0.25198764     0.25340
C523        C  0.19430787  0.60902731  0.26706258    -0.22660
C524        C  0.21437407  0.58535544  0.28440799     0.20240
F525        F  0.18842999  0.03523933  0.30050188    -0.12620
F526        F  0.27657173  0.58130668  0.28862781    -0.14980
F527        F  0.20298360  0.68515643  0.23649793    -0.14980
F528        F  0.29257205  0.73636034  0.23074244    -0.12620
C529        C  0.41984865  0.77155862  0.24426696     0.25390
C530        C  0.37342166  0.74158205  0.26058601    -0.22710
C531        C  0.36016616  0.76443749  0.29389623     0.20300
C532        C  0.38677918  0.81781618  0.29729547     0.25340
C533        C  0.42950469  0.84833586  0.27267541    -0.22660
C534        C  0.44732401  0.82381301  0.25059445     0.20240
F535        F  0.49004970  0.85096946  0.22994466    -0.12640
F536        F  0.43860284  0.75256927  0.21772329    -0.14980
F537        F  0.37028802  0.83965372  0.32365521    -0.14980
F538        F  0.32128308  0.73640181  0.32210906    -0.12620
C539        C  0.40034187  0.62244365  0.20797867     0.25390
C540        C  0.39801445  0.59852951  0.25119404    -0.22710
C541        C  0.38086492  0.60771924  0.29252294     0.20300
C542        C  0.36433717  0.63869604  0.28958744     0.25340
C543        C  0.36110488  0.65727842  0.24479845    -0.22660
C544        C  0.38394933  0.65207512  0.20497704     0.20240
F545        F  0.39545474  0.67963681  0.16288810    -0.12620
F546        F  0.41951885  0.61829725  0.16729850    -0.14980
F547        F  0.35005395  0.64900903  0.33023978    -0.14980
F548        F  0.38062855  0.58742880  0.33547259    -0.12620
C549        C  0.25749536  0.60439877  0.02506241     0.25390
C550        C  0.28771286  0.65707572  0.00986092    -0.22710
C551        C  0.26962208  0.67548177  0.97799849     0.20300
C552        C  0.22306097  0.64815749  0.97347852     0.25340
C553        C  0.19313508  0.60107971  0.99907597    -0.22660
C554        C  0.21097348  0.57930316  0.02482048     0.20240
F555        F  0.18367371  0.03081976  0.04497588    -0.12620
F556        F  0.27183149  0.57342257  0.02909802    -0.14980
F557        F  0.20749959  0.66784633  0.94358736    -0.14980
F558        F  0.29633353  0.71738849  0.94775085    -0.12620
C559        C  0.42763216  0.82579867  0.46446965     0.25390
C560        C  0.41441402  0.85540440  0.48555679    -0.22710
C561        C  0.37131747  0.82983299  0.50931132     0.20300
C562        C  0.34499279  0.77660558  0.51747535     0.25340
C563        C  0.36195274  0.74723065  0.50423118    -0.22660
C564        C  0.40212890  0.77257668  0.47373716     0.20240
F565        F  0.41788822  0.74709850  0.45300570    -0.12620
F566        F  0.46626600  0.84848803  0.43596361    -0.14980
F567        F  0.30519200  0.75446390  0.04401202    -0.14980
F568        F  0.35537901  0.85633208  0.02726682    -0.12620
C569        C  0.40122515  0.67807847  0.53829764     0.25390
C570        C  0.36424591  0.66770142  0.51253226    -0.22710
C571        C  0.35329246  0.63546486  0.47403920     0.20300
C572        C  0.37240038  0.60787920  0.46781122     0.25340
C573        C  0.40417242  0.61316957  0.49841718    -0.22660
C574        C  0.41952659  0.64972217  0.53257420     0.20240
F575        F  0.45286401  0.65860134  0.56011483    -0.12620
F576        F  0.42021101  0.71594346  0.56904985    -0.14980
F577        F  0.35811451  0.57405083  0.43315438    -0.14980
F578        F  0.32398060  0.63012195  0.94229852    -0.12620
C579        C  0.36012228  0.73929696  0.10751229     0.25390
C580        C  0.33578665  0.69292529  0.08280716    -0.22710
C581        C  0.31368734  0.64731691  0.11248284     0.20300
C582        C  0.30847016  0.64719870  0.16153030     0.25340
C583        C  0.33402053  0.69308756  0.18529475    -0.22660
C584        C  0.35653269  0.73934497  0.15703059     0.20240
F585        F  0.37709514  0.78555231  0.17623192    -0.12620
F586        F  0.39408931  0.78471003  0.08579679    -0.14980
F587        F  0.28627002  0.60089200  0.18610341    -0.14980
F588        F  0.30735904  0.60409730  0.09709480    -0.12620
C589        C  0.33763760  0.69123787  0.52640131    -0.00690
C590        C  0.33976284  0.68856769  0.73942570    -0.00690
C591        C  0.16628639  0.83403114  0.92661250    -0.00690
C592        C  0.16305399  0.83250196  0.71255324    -0.00690
C593        C  0.42096921  0.58048291  0.99479823     0.78250
Tb594      Tb  0.05248264  0.50607822  0.97849266     1.80740
O595        O  0.42668733  0.56550737  0.95596362    -0.49770
O596        O  0.38867139  0.95794285  0.94131691    -0.57220
C597        C  0.05656481  0.61600830  0.97831628     0.94060
O598        O  0.12780923  0.57228054  0.45508257    -0.56750
Tb599      Tb  0.44829459  0.51395811  0.98749733     1.78060
O600        O  0.05451295  0.93476139  0.99819581    -0.57250
O601        O  0.43792993  0.93712485  0.01277346    -0.76050
O602        O  0.01465724  0.59659036  0.98015737    -0.75370
O603        O  0.47118216  0.51132563  0.56393368    -0.60630
C604        C  0.44619612  0.91217964  0.98508966     0.93650
O605        O  0.03634539  0.51627332  0.90161295    -0.72580
C606        C  0.08068494  0.44170509  0.96305654     0.77100
C607        C  0.35676820  0.94478543  0.97199965     0.78080
O608        O  0.42977460  0.56336764  0.53023688    -0.57830
O609        O  0.37051847  0.96388237  0.51145605    -0.49780
O610        O  0.02605462  0.49801792  0.55820647    -0.75840
O611        O  0.47340991  0.51475937  0.90836725    -0.59840
C612        C  0.50444161  0.51575749  0.88367408     0.91870
C613        C  0.49878632  0.50385682  0.58243478     0.93100
C614        C  0.14426419  0.57051469  0.49305427     0.77450
O615        O  0.09035159  0.47808613  0.93437635    -0.49160
O616        O  0.11494322  0.03780167  0.52437831    -0.50320
O617        O  0.48235769  0.93520832  0.95838095    -0.63170
O618        O  0.07269733  0.58964271  0.97823027    -0.64310
C619        C  0.41488374  0.56577155  0.75034901     0.78250
Tb620      Tb  0.05823579  0.51156338  0.72950282     1.80740
O621        O  0.43731001  0.56681143  0.71443267    -0.49770
O622        O  0.38746252  0.96116639  0.68207970    -0.57220
C623        C  0.04928857  0.61050146  0.70771995     0.94060
O624        O  0.13170294  0.58735238  0.72137928    -0.56750
Tb625      Tb  0.44352046  0.50141201  0.73748261     1.78060
O626        O  0.08804346  0.96337386  0.74199135    -0.57250
O627        O  0.43057314  0.92345978  0.76388723    -0.76050
O628        O  0.00784945  0.58535034  0.72219754    -0.75370
O629        O  0.46872599  0.50963619  0.81359090    -0.60630
C630        C  0.45336637  0.90448547  0.76407745     0.93650
O631        O  0.03306894  0.50636099  0.65304672    -0.72580
C632        C  0.09199698  0.45448699  0.69966292     0.77100
C633        C  0.35466868  0.93396010  0.71239003     0.78080
O634        O  0.40741483  0.53297132  0.78246476    -0.57830
O635        O  0.36622676  0.93952213  0.75450136    -0.49780
O636        O  0.03307849  0.51444314  0.80709756    -0.75840
O637        O  0.46784708  0.49989136  0.65931705    -0.59840
C638        C  0.49979974  0.50281062  0.63489512     0.91870
C639        C  0.50218395  0.51378920  0.83149452     0.93100
C640        C  0.14643639  0.57783995  0.75679251     0.77450
O641        O  0.07768438  0.47238449  0.67109646    -0.49160
O642        O  0.11692706  0.03659138  0.77976100    -0.50320
O643        O  0.49539976  0.93049337  0.75318465    -0.63170
O644        O  0.07085062  0.58994161  0.70385254    -0.64310
C645        C  0.08285397  0.74767928  0.71170288     0.25390
C646        C  0.12957238  0.77636635  0.69635202    -0.22710
C647        C  0.14406862  0.74932358  0.67112642     0.20300
C648        C  0.11721676  0.69556750  0.67269445     0.25340
C649        C  0.07396276  0.66705733  0.69656642    -0.22660
C650        C  0.05577948  0.69399157  0.71222069     0.20240
F651        F  0.01336848  0.66878219  0.73330817    -0.12620
F652        F  0.06531901  0.77063302  0.73421842    -0.14980
F653        F  0.13434920  0.67150469  0.65173685    -0.14980
F654        F  0.18460875  0.77392970  0.64582092    -0.12620
C655        C  0.17798266  0.92402967  0.69712412     0.25390
C656        C  0.15155402  0.87030866  0.69031833    -0.22710
C657        C  0.11149709  0.85304056  0.66652622     0.20300
C658        C  0.09196096  0.88088984  0.66716021     0.25340
C659        C  0.11431251  0.92883941  0.68668944    -0.22660
C660        C  0.15876234  0.95163706  0.69784455     0.20240
F661        F  0.18415195  0.50155551  0.70855714    -0.12620
F662        F  0.22347253  0.95250361  0.69731453    -0.14980
F663        F  0.05080346  0.86025157  0.65018957    -0.14980
F664        F  0.09144575  0.81042034  0.64140407    -0.12620
C665        C  0.23138564  0.83005566  0.72867507     0.25390
C666        C  0.21282487  0.85047539  0.70049001    -0.22710
C667        C  0.24230005  0.88818361  0.66418701     0.20300
C668        C  0.28931633  0.91420954  0.66566404     0.25340
C669        C  0.30709318  0.90025600  0.70123587    -0.22660
C670        C  0.27780021  0.85571321  0.73016548     0.20240
F671        F  0.29414523  0.83810150  0.76154588    -0.12620
F672        F  0.20475495  0.78667792  0.75712002    -0.14980
F673        F  0.31714483  0.45521741  0.63477840    -0.14980
F674        F  0.22608934  0.90123315  0.62843273    -0.12620
C675        C  0.10988473  0.75793240  0.98918506     0.25390
C676        C  0.14351719  0.77915262  0.95069896    -0.22710
C677        C  0.15534793  0.74678496  0.93230917     0.20300
C678        C  0.12747230  0.69402894  0.94236262     0.25340
C679        C  0.08884782  0.67224898  0.97357559    -0.22660
C680        C  0.08159387  0.70468429  0.99894238     0.20240
F681        F  0.04698323  0.68482327  0.53292483    -0.12620
F682        F  0.10354930  0.78782384  0.51710391    -0.14980
F683        F  0.13565654  0.66386438  0.91729719    -0.14980
F684        F  0.19001885  0.76467338  0.89894023    -0.12620
C685        C  0.14849046  0.94024555  0.95746755     0.25390
C686        C  0.10159907  0.91363513  0.95773045    -0.22710
C687        C  0.07575993  0.86148511  0.95021545     0.20300
C688        C  0.09667625  0.83655168  0.94067028     0.25340
C689        C  0.14404158  0.86168094  0.94352629    -0.22660
C690        C  0.16950638  0.91476511  0.95221452     0.20240
F691        F  0.21518227  0.94419655  0.95126855    -0.12620
F692        F  0.17435171  0.49179527  0.96045443    -0.14980
F693        F  0.07016293  0.78766806  0.92741035    -0.14980
F694        F  0.03039642  0.83521396  0.94884411    -0.12620
C695        C  0.22899068  0.87364181  0.98529547     0.25390
C696        C  0.21696594  0.86205872  0.93779884    -0.22710
C697        C  0.25195483  0.87235816  0.90360902     0.20300
C698        C  0.29664565  0.89790440  0.91532132     0.25340
C699        C  0.30850000  0.91297635  0.96160186    -0.22660
C700        C  0.27404652  0.89958762  0.99674512     0.20240
F701        F  0.28388571  0.91215852  0.54229893    -0.12620
F702        F  0.19711181  0.86159634  0.02066650    -0.14980
F703        F  0.32847309  0.90781489  0.88067087    -0.14980
F704        F  0.24380299  0.85571267  0.85898788    -0.12620
C705        C  0.13301686  0.78650344  0.79986565     0.25390
C706        C  0.15874772  0.83224561  0.76924074    -0.22710
C707        C  0.18655766  0.87777148  0.79347349     0.20300
C708        C  0.18495849  0.87839249  0.84292503     0.25340
C709        C  0.16013214  0.83261714  0.87204077    -0.22660
C710        C  0.13020632  0.78754085  0.84908636     0.20240
F711        F  0.09819597  0.74275114  0.87332686    -0.12620
F712        F  0.11704813  0.73928407  0.78492180    -0.14980
F713        F  0.21354800  0.92403489  0.86187301    -0.14980
F714        F  0.22271037  0.92041168  0.77132709    -0.12620
C715        C  0.26131340  0.61069882  0.77981555     0.25390
C716        C  0.28983790  0.66218965  0.76024185    -0.22710
C717        C  0.26834029  0.68725184  0.74947246     0.20300
C718        C  0.22159243  0.66079378  0.75198764     0.25340
C719        C  0.19430790  0.60902735  0.76706258    -0.22660
C720        C  0.21437409  0.58535548  0.78440801     0.20240
F721        F  0.18842999  0.03523941  0.80050193    -0.12620
F722        F  0.27657175  0.58130672  0.78862785    -0.14980
F723        F  0.20298363  0.68515648  0.73649792    -0.14980
F724        F  0.29257209  0.73636038  0.73074246    -0.12620
C725        C  0.41984867  0.77155864  0.74426698     0.25390
C726        C  0.37342168  0.74158208  0.76058603    -0.22710
C727        C  0.36016618  0.76443752  0.79389626     0.20300
C728        C  0.38677921  0.81781621  0.79729549     0.25340
C729        C  0.42950473  0.84833589  0.77267544    -0.22660
C730        C  0.44732404  0.82381303  0.75059448     0.20240
F731        F  0.49004973  0.85096949  0.72994468    -0.12640
F732        F  0.43860287  0.75256929  0.71772331    -0.14980
F733        F  0.37028806  0.83965376  0.82365523    -0.14980
F734        F  0.32128310  0.73640185  0.82210909    -0.12620
C735        C  0.40034189  0.62244368  0.70797868     0.25390
C736        C  0.39801446  0.59852952  0.75119404    -0.22710
C737        C  0.38086494  0.60771926  0.79252294     0.20300
C738        C  0.36433719  0.63869606  0.78958746     0.25340
C739        C  0.36110490  0.65727845  0.74479847    -0.22660
C740        C  0.38394935  0.65207515  0.70497705     0.20240
F741        F  0.39545476  0.67963685  0.66288812    -0.12620
F742        F  0.41951887  0.61829729  0.66729849    -0.14980
F743        F  0.35005398  0.64900905  0.83023980    -0.14980
F744        F  0.38062857  0.58742881  0.83547259    -0.12620
C745        C  0.25749537  0.60439879  0.52506244     0.25390
C746        C  0.28771288  0.65707573  0.50986094    -0.22710
C747        C  0.26962210  0.67548178  0.47799850     0.20300
C748        C  0.22306099  0.64815750  0.47347851     0.25340
C749        C  0.19313510  0.60107972  0.49907597    -0.22660
C750        C  0.21097349  0.57930318  0.52482050     0.20240
F751        F  0.18367373  0.03081974  0.54497585    -0.12620
F752        F  0.27183150  0.57342258  0.52909806    -0.14980
F753        F  0.20749962  0.66784633  0.44358734    -0.14980
F754        F  0.29633356  0.71738850  0.44775085    -0.12620
C755        C  0.42763215  0.82579865  0.96446962     0.25390
C756        C  0.41441401  0.85540438  0.98555677    -0.22710
C757        C  0.37131746  0.82983298  0.00931130     0.20300
C758        C  0.34499278  0.77660556  0.01747533     0.25340
C759        C  0.36195273  0.74723064  0.00423115    -0.22660
C760        C  0.40212888  0.77257666  0.97373714     0.20240
F761        F  0.41788820  0.74709848  0.95300567    -0.12620
F762        F  0.46626599  0.84848802  0.93596359    -0.14980
F763        F  0.30519200  0.75446391  0.54401204    -0.14980
F764        F  0.35537901  0.85633209  0.52726684    -0.12620
C765        C  0.40122514  0.67807847  0.03829761     0.25390
C766        C  0.36424590  0.66770140  0.01253223    -0.22710
C767        C  0.35329245  0.63546485  0.97403917     0.20300
C768        C  0.37240037  0.60787918  0.96781119     0.25340
C769        C  0.40417241  0.61316956  0.99841715    -0.22660
C770        C  0.41952658  0.64972217  0.03257417     0.20240
F771        F  0.45286401  0.65860135  0.06011479    -0.12620
F772        F  0.42021100  0.71594345  0.06904981    -0.14980
F773        F  0.35811450  0.57405081  0.93315436    -0.14980
F774        F  0.32398062  0.63012197  0.44229854    -0.12620
C775        C  0.36012229  0.73929698  0.60751232     0.25390
C776        C  0.33578666  0.69292531  0.58280718    -0.22710
C777        C  0.31368736  0.64731693  0.61248287     0.20300
C778        C  0.30847018  0.64719873  0.66153032     0.25340
C779        C  0.33402055  0.69308759  0.68529478    -0.22660
C780        C  0.35653271  0.73934499  0.65703061     0.20240
F781        F  0.37709516  0.78555234  0.67623194    -0.12620
F782        F  0.39408933  0.78471006  0.58579681    -0.14980
F783        F  0.28627003  0.60089203  0.68610344    -0.14980
F784        F  0.30735905  0.60409732  0.59709483    -0.12620
C785        C  0.83768678  0.19124128  0.02643946    -0.00690
C786        C  0.83981481  0.18857204  0.23946724    -0.00690
C787        C  0.66623876  0.33403663  0.42660335    -0.00690
C788        C  0.66300521  0.33249657  0.21254624    -0.00690
C789        C  0.92100770  0.08047893  0.49480023     0.78250
Tb790      Tb  0.55253949  0.00609389  0.47850053     1.80740
O791        O  0.92670182  0.06548046  0.45596806    -0.49770
O792        O  0.88862813  0.45796135  0.44130735    -0.57220
C793        C  0.55660708  0.11601634  0.47830803     0.94060
O794        O  0.62786935  0.07229260  0.95510902    -0.56750
Tb795      Tb  0.94833793  0.01395649  0.48749934     1.78060
O796        O  0.55443571  0.43473180  0.49818835    -0.57250
O797        O  0.93787274  0.43711635  0.51276530    -0.76050
O798        O  0.51469717  0.09658931  0.48018797    -0.75370
O799        O  0.97120295  0.01130245  0.06394205    -0.60630
C800        C  0.94614728  0.41217630  0.48508337     0.93650
O801        O  0.53639937  0.01627295  0.40161778    -0.72580
C802        C  0.58077398  0.94174784  0.46307131     0.77100
C803        C  0.85672444  0.44480562  0.47198855     0.78080
O804        O  0.92983708  0.06338567  0.03023528    -0.57830
O805        O  0.87047381  0.46389138  0.01144911    -0.49780
O806        O  0.52610267  0.99803906  0.05821133    -0.75840
O807        O  0.97347130  0.01477482  0.40836901    -0.59840
C808        C  0.00450103  0.01576707  0.38367675     0.91870
C809        C  0.99881777  0.00385085  0.08244165     0.93100
C810        C  0.64431043  0.07053965  0.99309653     0.77450
O811        O  0.59044024  0.97813094  0.43439445    -0.49160
O812        O  0.61490676  0.53776491  0.02433551    -0.50320
O813        O  0.98229788  0.43521575  0.45835800    -0.63170
O814        O  0.57274762  0.08965871  0.47818770    -0.64310
C815        C  0.91492148  0.06576506  0.25037190     0.78250
Tb816      Tb  0.55828081  0.01156462  0.22949412     1.80740
O817        O  0.93730708  0.06676735  0.21443674    -0.49770
O818        O  0.88741986  0.46121413  0.18207848    -0.57220
C819        C  0.54930911  0.11049683  0.20772356     0.94060
O820        O  0.63175296  0.08733095  0.22139729    -0.56750
Tb821      Tb  0.94354774  0.00139548  0.23749598     1.78060
O822        O  0.58830941  0.46369650  0.24195764    -0.57250
O823        O  0.93053385  0.42344107  0.26377602    -0.76050
O824        O  0.50786025  0.08532959  0.22216074    -0.75370
O825        O  0.96878704  0.00964549  0.31359213    -0.60630
C826        C  0.95334608  0.40449337  0.26411648     0.93650
O827        O  0.53310401  0.00636087  0.15304829    -0.72580
C828        C  0.59203589  0.95448731  0.19965489     0.77100
C829        C  0.85463388  0.43398888  0.21239363     0.78080
O830        O  0.90747647  0.03298553  0.28249772    -0.57830
O831        O  0.86620389  0.43953220  0.25450007    -0.49780
O832        O  0.53314322  0.01445708  0.30709796    -0.75840
O833        O  0.96787010  0.99986177  0.15932945    -0.59840
C834        C  0.99982821  0.00279713  0.13490222     0.91870
C835        C  0.00224712  0.01380135  0.33149520     0.93100
C836        C  0.64647636  0.07780051  0.25680654     0.77450
O837        O  0.57804061  0.97271854  0.17104262    -0.49160
O838        O  0.61689496  0.53663363  0.27975616    -0.50320
O839        O  0.99539908  0.43051739  0.25334188    -0.63170
O840        O  0.57089018  0.08995616  0.20389982    -0.64310
C841        C  0.58282043  0.24765502  0.21167853     0.25390
C842        C  0.62954198  0.27635928  0.19634046    -0.22710
C843        C  0.64406109  0.24932911  0.17113062     0.20300
C844        C  0.61722747  0.19557308  0.17270577     0.25340
C845        C  0.57396852  0.16704942  0.19656471    -0.22660
C846        C  0.55576337  0.19396710  0.21220009     0.20240
F847        F  0.51334839  0.16874292  0.23327877    -0.12620
F848        F  0.56526532  0.27059273  0.23418390    -0.14980
F849        F  0.63438187  0.17152386  0.15176808    -0.14980
F850        F  0.68460713  0.27394775  0.14583560    -0.12620
C851        C  0.67793588  0.42401837  0.19708712     0.25390
C852        C  0.65150250  0.37029548  0.19029674    -0.22710
C853        C  0.61143841  0.35302279  0.16651581     0.20300
C854        C  0.59190584  0.38087771  0.16714764     0.25340
C855        C  0.61426122  0.42882720  0.18667938    -0.22660
C856        C  0.65871589  0.45162422  0.19782028     0.20240
F857        F  0.68419144  0.00156691  0.20858468    -0.12620
F858        F  0.72342712  0.45249247  0.19726596    -0.14980
F859        F  0.55074347  0.36023730  0.15018883    -0.14980
F860        F  0.59137831  0.31039477  0.14140474    -0.12620
C861        C  0.73134935  0.33008547  0.22870803     0.25390
C862        C  0.71278313  0.35048399  0.20050261    -0.22710
C863        C  0.74225500  0.38817295  0.16418491     0.20300
C864        C  0.78927235  0.41420901  0.16566375     0.25340
C865        C  0.80705423  0.40028038  0.20125147    -0.22660
C866        C  0.77776440  0.35575069  0.23019911     0.20240
F867        F  0.79411250  0.33815560  0.26159358    -0.12620
F868        F  0.70472367  0.28671608  0.25716466    -0.14980
F869        F  0.81719321  0.95523499  0.13479731    -0.14980
F870        F  0.72603907  0.40119462  0.12841404    -0.12620
C871        C  0.60987431  0.25792706  0.48918254     0.25390
C872        C  0.64349580  0.27916156  0.45068575    -0.22710
C873        C  0.65534731  0.24681488  0.43228703     0.20300
C874        C  0.62750060  0.19405898  0.44235056     0.25340
C875        C  0.58887782  0.17225934  0.47356991    -0.22660
C876        C  0.58160738  0.20467891  0.49894294     0.20240
F877        F  0.54700379  0.18480199  0.03293602    -0.12620
F878        F  0.60352576  0.28780378  0.01710870    -0.14980
F879        F  0.63571307  0.16391220  0.41729360    -0.14980
F880        F  0.69001276  0.26472139  0.39890699    -0.12620
C881        C  0.64840821  0.44022497  0.45742706     0.25390
C882        C  0.60151431  0.41359711  0.45771960    -0.22710
C883        C  0.57568105  0.36143778  0.45024254     0.20300
C884        C  0.59660802  0.33651552  0.44069590     0.25340
C885        C  0.64397867  0.36166579  0.44352918    -0.22660
C886        C  0.66943432  0.41475559  0.45219275     0.20240
F887        F  0.71511084  0.44420228  0.45123630    -0.12620
F888        F  0.67444146  0.99180912  0.46054656    -0.14980
F889        F  0.57010042  0.28762394  0.42745419    -0.14980
F890        F  0.53031306  0.33514607  0.44890464    -0.12620
C891        C  0.72894755  0.37367061  0.48527910     0.25390
C892        C  0.71692194  0.36208687  0.43778259    -0.22710
C893        C  0.75191396  0.37240563  0.40358784     0.20300
C894        C  0.79660513  0.39795429  0.41530011     0.25340
C895        C  0.80845735  0.41301054  0.46158495    -0.22660
C896        C  0.77400328  0.39961811  0.49672843     0.20240
F897        F  0.78384142  0.41218472  0.04228319    -0.12620
F898        F  0.69706843  0.36161932  0.52065191    -0.14980
F899        F  0.82843483  0.40788051  0.38064564    -0.14980
F900        F  0.74376507  0.35577360  0.35896209    -0.12620
C901        C  0.63295875  0.28649919  0.29986102     0.25390
C902        C  0.65868206  0.33224119  0.26923359    -0.22710
C903        C  0.68647433  0.37777239  0.29346631     0.20300
C904        C  0.68488013  0.37839355  0.34291732     0.25340
C905        C  0.66007329  0.33261860  0.37203389    -0.22660
C906        C  0.63015271  0.28753799  0.34908272     0.20240
F907        F  0.59815642  0.24274489  0.37332835    -0.12620
F908        F  0.61699826  0.23928129  0.28491973    -0.14980
F909        F  0.71346009  0.42404077  0.36186138    -0.14980
F910        F  0.72260828  0.42042924  0.27131967    -0.12620
C911        C  0.76135887  0.11067450  0.27982836     0.25390
C912        C  0.78987940  0.16216969  0.26026181    -0.22710
C913        C  0.76837277  0.18721960  0.24948432     0.20300
C914        C  0.72162520  0.16075591  0.25200681     0.25340
C915        C  0.69434587  0.10898967  0.26708411    -0.22660
C916        C  0.71441808  0.08532394  0.28442508     0.20240
F917        F  0.68838167  0.53527082  0.30048485    -0.12620
F918        F  0.77662171  0.08128485  0.28862818    -0.14980
F919        F  0.70301107  0.18511384  0.23651990    -0.14980
F920        F  0.79259581  0.23632506  0.23074683    -0.12620
C921        C  0.91988605  0.27158531  0.24435250     0.25390
C922        C  0.87345011  0.24159049  0.26063961    -0.22710
C923        C  0.86016312  0.26443677  0.29392613     0.20300
C924        C  0.88675446  0.31781764  0.29731708     0.25340
C925        C  0.92949367  0.34834833  0.27272925    -0.22660
C926        C  0.94734105  0.32384026  0.25068114     0.20240
F927        F  0.99007732  0.35101299  0.23005796    -0.12640
F928        F  0.93867743  0.25261266  0.21784887    -0.14980
F929        F  0.87023261  0.33964625  0.32363965    -0.14980
F930        F  0.82127175  0.23638944  0.32212456    -0.12620
C931        C  0.90046431  0.12252845  0.20803126     0.25390
C932        C  0.89808080  0.09855153  0.25123147    -0.22710
C933        C  0.88089773  0.10770250  0.29255932     0.20300
C934        C  0.86437853  0.13868848  0.28963149     0.25340
C935        C  0.86117677  0.15730512  0.24484658    -0.22660
C936        C  0.88406463  0.15215231  0.20503448     0.20240
F937        F  0.89559356  0.17974780  0.16296055    -0.12620
F938        F  0.91969903  0.11844858  0.16736130    -0.14980
F939        F  0.85006323  0.14896511  0.33028372    -0.14980
F940        F  0.88061278  0.08735834  0.33549979    -0.12620
C941        C  0.75752390  0.10441609  0.02516424     0.25390
C942        C  0.78775449  0.15707886  0.00992052    -0.22710
C943        C  0.76967285  0.17547282  0.97803007     0.20300
C944        C  0.72311311  0.14815972  0.97350938     0.25340
C945        C  0.69317806  0.10110180  0.99913259    -0.22660
C946        C  0.71100377  0.07933216  0.02491175     0.20240
F947        F  0.68365475  0.53078167  0.04486629    -0.12620
F948        F  0.77184174  0.07342725  0.02923847    -0.14980
F949        F  0.70756157  0.16783629  0.94358807    -0.14980
F950        F  0.79639321  0.21735531  0.94775743    -0.12620
C951        C  0.92762616  0.32580834  0.46448144     0.25390
C952        C  0.91438971  0.35539779  0.48556902    -0.22710
C953        C  0.87130018  0.32980919  0.50934115     0.20300
C954        C  0.84500276  0.27658492  0.51752162     0.25340
C955        C  0.86198370  0.24723154  0.50427319    -0.22660
C956        C  0.90215029  0.27258953  0.47376481     0.20240
F957        F  0.91792291  0.24712532  0.45303132    -0.12620
F958        F  0.96624944  0.34851176  0.43595539    -0.14980
F959        F  0.80520688  0.25442719  0.04407141    -0.14980
F960        F  0.85534129  0.35629034  0.02729131    -0.12620
C961        C  0.90129561  0.17810793  0.53828109     0.25390
C962        C  0.86429290  0.16770756  0.51254643    -0.22710
C963        C  0.85330083  0.13543107  0.47407990     0.20300
C964        C  0.87240866  0.10784578  0.46784535     0.25340
C965        C  0.90421170  0.11316713  0.49842157    -0.22660
C966        C  0.91959487  0.14974915  0.53255327     0.20240
F967        F  0.95295410  0.15864966  0.56006880    -0.12620
F968        F  0.92029437  0.21598560  0.56902070    -0.14980
F969        F  0.85809283  0.07398726  0.43321294    -0.14980
F970        F  0.82395492  0.13005110  0.94236762    -0.12620
C971        C  0.86017583  0.23930346  0.10755056     0.25390
C972        C  0.83585948  0.19293130  0.08284438    -0.22710
C973        C  0.81380307  0.14732489  0.11251491     0.20300
C974        C  0.80856775  0.14719684  0.16156121     0.25340
C975        C  0.83408568  0.19308804  0.18533155    -0.22660
C976        C  0.85658719  0.23934680  0.15706987     0.20240
F977        F  0.87713901  0.28555146  0.17627475    -0.12620
F978        F  0.89412304  0.28472711  0.08583321    -0.14980
F979        F  0.78639066  0.10088962  0.18613014    -0.14980
F980        F  0.80755930  0.10414510  0.09712402    -0.12620
C981        C  0.83768679  0.19124129  0.52643950    -0.00690
C982        C  0.83981482  0.18857207  0.73946728    -0.00690
C983        C  0.66623875  0.33403661  0.92660336    -0.00690
C984        C  0.66300521  0.33249658  0.71254624    -0.00690
C985        C  0.92100770  0.08047892  0.99480020     0.78250
Tb986      Tb  0.55253948  0.00609387  0.97850054     1.80740
O987        O  0.92670181  0.06548045  0.95596804    -0.49770
O988        O  0.88862812  0.45796134  0.94130734    -0.57220
C989        C  0.55660708  0.11601632  0.97830802     0.94060
O990        O  0.62786937  0.07229262  0.45510902    -0.56750
Tb991      Tb  0.94833792  0.01395648  0.98749934     1.78060
O992        O  0.55443570  0.43473178  0.99818838    -0.57250
O993        O  0.93787273  0.43711633  0.01276528    -0.76050
O994        O  0.51469717  0.09658929  0.98018802    -0.75370
O995        O  0.97120300  0.01130250  0.56394204    -0.60630
C996        C  0.94614727  0.41217628  0.98508334     0.93650
O997        O  0.53639934  0.01627289  0.90161778    -0.72580
C998        C  0.58077398  0.94174782  0.96307134     0.77100
C999        C  0.85672443  0.44480560  0.97198855     0.78080
O1000       O  0.92983709  0.06338567  0.53023530    -0.57830
O1001       O  0.87047382  0.46389140  0.51144911    -0.49780
O1002       O  0.52610269  0.99803908  0.55821133    -0.75840
O1003       O  0.97347129  0.01477484  0.90836901    -0.59840
C1004       C  0.00450101  0.01576704  0.88367676     0.91870
C1005       C  0.99881781  0.00385090  0.58244165     0.93100
C1006       C  0.64431044  0.07053965  0.49309652     0.77450
O1007       O  0.59044024  0.97813091  0.93439448    -0.49160
O1008       O  0.61490677  0.53776492  0.52433551    -0.50320
O1009       O  0.98229787  0.43521574  0.95835798    -0.63170
O1010       O  0.57274762  0.08965869  0.97818764    -0.64310
C1011       C  0.91492148  0.06576506  0.75037189     0.78250
Tb1012     Tb  0.55828083  0.01156464  0.72949414     1.80740
O1013       O  0.93730702  0.06676731  0.71443670    -0.49770
O1014       O  0.88741985  0.46121415  0.68207849    -0.57220
C1015       C  0.54930913  0.11049685  0.70772354     0.94060
O1016       O  0.63175298  0.08733098  0.72139728    -0.56750
Tb1017     Tb  0.94354776  0.00139551  0.73749597     1.78060
O1018       O  0.58830994  0.46369706  0.74195760    -0.57250
O1019       O  0.93053388  0.42344106  0.76377590    -0.76050
O1020       O  0.50786026  0.08532960  0.72216065    -0.75370
O1021       O  0.96878706  0.00964555  0.81359212    -0.60630
C1022       C  0.95334613  0.40449339  0.76411651     0.93650
O1023       O  0.53310406  0.00636092  0.65304829    -0.72580
C1024       C  0.59203592  0.95448734  0.69965491     0.77100
C1025       C  0.85463389  0.43398888  0.71239366     0.78080
O1026       O  0.90747654  0.03298559  0.78249774    -0.57830
O1027       O  0.86620392  0.43953218  0.75450009    -0.49780
O1028       O  0.53314319  0.01445704  0.80709797    -0.75840
O1029       O  0.96787014  0.99986180  0.65932945    -0.59840
C1030       C  0.99982827  0.00279719  0.63490222     0.91870
C1031       C  0.00224710  0.01380134  0.83149521     0.93100
C1032       C  0.64647638  0.07780055  0.75680655     0.77450
O1033       O  0.57804034  0.97271825  0.67104268    -0.49160
O1034       O  0.61689500  0.53663372  0.77975619    -0.50320
O1035       O  0.99539914  0.43051742  0.75334203    -0.63170
O1036       O  0.57089022  0.08995620  0.70389988    -0.64310
C1037       C  0.58282043  0.24765503  0.71167849     0.25390
C1038       C  0.62954199  0.27635929  0.69634045    -0.22710
C1039       C  0.64406112  0.24932913  0.67113062     0.20300
C1040       C  0.61722749  0.19557310  0.67270577     0.25340
C1041       C  0.57396854  0.16704944  0.69656468    -0.22660
C1042       C  0.55576337  0.19396711  0.71220004     0.20240
F1043       F  0.51334838  0.16874293  0.73327868    -0.12620
F1044       F  0.56526531  0.27059274  0.73418384    -0.14980
F1045       F  0.63438191  0.17152388  0.65176810    -0.14980
F1046       F  0.68460716  0.27394777  0.64583563    -0.12620
C1047       C  0.67793590  0.42401838  0.69708712     0.25390
C1048       C  0.65150251  0.37029549  0.69029673    -0.22710
C1049       C  0.61143844  0.35302282  0.66651578     0.20300
C1050       C  0.59190588  0.38087776  0.66714760     0.25340
C1051       C  0.61426125  0.42882723  0.68667938    -0.22660
C1052       C  0.65871591  0.45162422  0.69782030     0.20240
F1053       F  0.68419146  0.00156692  0.70858473    -0.12620
F1054       F  0.72342714  0.45249248  0.69726597    -0.14980
F1055       F  0.55074352  0.36023736  0.65018877    -0.14980
F1056       F  0.59137834  0.31039481  0.64140470    -0.12620
C1057       C  0.73134935  0.33008549  0.72870808     0.25390
C1058       C  0.71278313  0.35048400  0.70050264    -0.22710
C1059       C  0.74225500  0.38817294  0.66418493     0.20300
C1060       C  0.78927236  0.41420900  0.66566378     0.25340
C1061       C  0.80705424  0.40028038  0.70125151    -0.22660
C1062       C  0.77776440  0.35575071  0.73019916     0.20240
F1063       F  0.79411249  0.33815562  0.76159365    -0.12620
F1064       F  0.70472366  0.28671611  0.75716472    -0.14980
F1065       F  0.81719323  0.95523500  0.63479732    -0.14980
F1066       F  0.72603908  0.40119460  0.62841405    -0.12620
C1067       C  0.60987434  0.25792704  0.98918256     0.25390
C1068       C  0.64349579  0.27916154  0.95068574    -0.22710
C1069       C  0.65534730  0.24681485  0.93228698     0.20300
C1070       C  0.62750058  0.19405896  0.94235051     0.25340
C1071       C  0.58887783  0.17225932  0.97356990    -0.22660
C1072       C  0.58160741  0.20467889  0.99894296     0.20240
F1073       F  0.54700373  0.18480200  0.53293597    -0.12620
F1074       F  0.60352571  0.28780380  0.51710866    -0.14980
F1075       F  0.63571304  0.16391218  0.91729353    -0.14980
F1076       F  0.69001272  0.26472137  0.89890692    -0.12620
C1077       C  0.64840820  0.44022496  0.95742707     0.25390
C1078       C  0.60151430  0.41359709  0.95771965    -0.22710
C1079       C  0.57568104  0.36143775  0.95024262     0.20300
C1080       C  0.59660801  0.33651549  0.94069597     0.25340
C1081       C  0.64397866  0.36166577  0.94352921    -0.22660
C1082       C  0.66943431  0.41475558  0.95219276     0.20240
F1083       F  0.71511084  0.44420226  0.95123628    -0.12620
F1084       F  0.67444146  0.99180910  0.96054658    -0.14980
F1085       F  0.57010040  0.28762390  0.92745428    -0.14980
F1086       F  0.53031304  0.33514603  0.94890477    -0.12620
C1087       C  0.72894754  0.37367059  0.98527910     0.25390
C1088       C  0.71692193  0.36208685  0.93778259    -0.22710
C1089       C  0.75191395  0.37240561  0.90358784     0.20300
C1090       C  0.79660512  0.39795427  0.91530010     0.25340
C1091       C  0.80845734  0.41301053  0.96158494    -0.22660
C1092       C  0.77400327  0.39961810  0.99672842     0.20240
F1093       F  0.78384143  0.41218474  0.54228320    -0.12620
F1094       F  0.69706843  0.36161931  0.02065191    -0.14980
F1095       F  0.82843482  0.40788050  0.88064563    -0.14980
F1096       F  0.74376506  0.35577359  0.85896208    -0.12620
C1097       C  0.63295871  0.28649919  0.79986103     0.25390
C1098       C  0.65868204  0.33224119  0.76923359    -0.22710
C1099       C  0.68647431  0.37777239  0.79346632     0.20300
C1100       C  0.68488011  0.37839355  0.84291733     0.25340
C1101       C  0.66007327  0.33261859  0.87203390    -0.22660
C1102       C  0.63015267  0.28753800  0.84908272     0.20240
F1103       F  0.59815637  0.24274490  0.87332836    -0.12620
F1104       F  0.61699820  0.23928130  0.78491973    -0.14980
F1105       F  0.71346008  0.42404076  0.86186139    -0.14980
F1106       F  0.72260827  0.42042923  0.77131968    -0.12620
C1107       C  0.76135888  0.11067454  0.77982840     0.25390
C1108       C  0.78987942  0.16216973  0.76026185    -0.22710
C1109       C  0.76837279  0.18721964  0.74948435     0.20300
C1110       C  0.72162522  0.16075596  0.75200683     0.25340
C1111       C  0.69434589  0.10898971  0.76708412    -0.22660
C1112       C  0.71441809  0.08532399  0.78442511     0.20240
F1113       F  0.68838169  0.53527089  0.80048487    -0.12620
F1114       F  0.77662172  0.08128490  0.78862825    -0.14980
F1115       F  0.70301109  0.18511389  0.73651990    -0.14980
F1116       F  0.79259584  0.23632511  0.73074687    -0.12620
C1117       C  0.91988607  0.27158532  0.74435253     0.25390
C1118       C  0.87345013  0.24159052  0.76063964    -0.22710
C1119       C  0.86016315  0.26443680  0.79392617     0.20300
C1120       C  0.88675450  0.31781768  0.79731712     0.25340
C1121       C  0.92949371  0.34834835  0.77272928    -0.22660
C1122       C  0.94734108  0.32384028  0.75068116     0.20240
F1123       F  0.99007734  0.35101301  0.73005797    -0.12640
F1124       F  0.93867744  0.25261267  0.71784888    -0.14980
F1125       F  0.87023265  0.33964629  0.82363969    -0.14980
F1126       F  0.82127178  0.23638948  0.82212460    -0.12620
C1127       C  0.90046429  0.12252845  0.70803126     0.25390
C1128       C  0.89808079  0.09855153  0.75123148    -0.22710
C1129       C  0.88089775  0.10770252  0.79255933     0.20300
C1130       C  0.86437854  0.13868850  0.78963151     0.25340
C1131       C  0.86117677  0.15730513  0.74484661    -0.22660
C1132       C  0.88406461  0.15215231  0.70503449     0.20240
F1133       F  0.89559354  0.17974780  0.66296057    -0.12620
F1134       F  0.91969898  0.11844857  0.66736130    -0.14980
F1135       F  0.85006327  0.14896514  0.83028375    -0.14980
F1136       F  0.88061282  0.08735838  0.83549981    -0.12620
C1137       C  0.75752392  0.10441609  0.52516423     0.25390
C1138       C  0.78775450  0.15707888  0.50992054    -0.22710
C1139       C  0.76967286  0.17547283  0.47803009     0.20300
C1140       C  0.72311312  0.14815973  0.47350939     0.25340
C1141       C  0.69317808  0.10110180  0.49913259    -0.22660
C1142       C  0.71100378  0.07933216  0.52491174     0.20240
F1143       F  0.68365476  0.53078169  0.54486631    -0.12620
F1144       F  0.77184177  0.07342726  0.52923845    -0.14980
F1145       F  0.70756158  0.16783631  0.44358808    -0.14980
F1146       F  0.79639323  0.21735534  0.44775746    -0.12620
C1147       C  0.92762615  0.32580833  0.96448140     0.25390
C1148       C  0.91438969  0.35539777  0.98556899    -0.22710
C1149       C  0.87130017  0.32980917  0.00934111     0.20300
C1150       C  0.84500275  0.27658491  0.01752159     0.25340
C1151       C  0.86198369  0.24723153  0.00427315    -0.22660
C1152       C  0.90215028  0.27258952  0.97376477     0.20240
F1153       F  0.91792289  0.24712530  0.95303127    -0.12620
F1154       F  0.96624943  0.34851175  0.93595536    -0.14980
F1155       F  0.80520689  0.25442720  0.54407144    -0.14980
F1156       F  0.85534130  0.35629035  0.52729134    -0.12620
C1157       C  0.90129562  0.17810794  0.03828103     0.25390
C1158       C  0.86429290  0.16770754  0.01254639    -0.22710
C1159       C  0.85330080  0.13543102  0.97407988     0.20300
C1160       C  0.87240863  0.10784573  0.96784534     0.25340
C1161       C  0.90421169  0.11316712  0.99842153    -0.22660
C1162       C  0.91959489  0.14974918  0.03255320     0.20240
F1163       F  0.95295413  0.15864971  0.06006872    -0.12620
F1164       F  0.92029440  0.21598563  0.06902062    -0.14980
F1165       F  0.85809278  0.07398719  0.93321295    -0.14980
F1166       F  0.82395498  0.13005118  0.44236763    -0.12620
C1167       C  0.86017584  0.23930347  0.60755059     0.25390
C1168       C  0.83585947  0.19293132  0.58284441    -0.22710
C1169       C  0.81380304  0.14732490  0.61251495     0.20300
C1170       C  0.80856773  0.14719686  0.66156125     0.25340
C1171       C  0.83408569  0.19308807  0.68533158    -0.22660
C1172       C  0.85658720  0.23934683  0.65706990     0.20240
F1173       F  0.87713903  0.28555149  0.67627477    -0.12620
F1174       F  0.89412306  0.28472712  0.58583324    -0.14980
F1175       F  0.78639064  0.10088964  0.68613019    -0.14980
F1176       F  0.80755921  0.10414509  0.59712407    -0.12620
C1177       C  0.83763759  0.69123785  0.02640128    -0.00690
C1178       C  0.83976282  0.68856765  0.23942568    -0.00690
C1179       C  0.66628640  0.83403116  0.42661249    -0.00690
C1180       C  0.66305399  0.83250195  0.21255323    -0.00690
C1181       C  0.92096922  0.58048292  0.49479825     0.78250
Tb1182     Tb  0.55248266  0.50607825  0.47849266     1.80740
O1183       O  0.92668733  0.56550738  0.45596364    -0.49770
O1184       O  0.88867139  0.95794287  0.44131692    -0.57220
C1185       C  0.55656481  0.61600832  0.47831629     0.94060
O1186       O  0.62780921  0.57228052  0.95508257    -0.56750
Tb1187     Tb  0.94829460  0.51395812  0.48749733     1.78060
O1188       O  0.55451296  0.93476140  0.49819577    -0.57250
O1189       O  0.93792993  0.93712486  0.51277348    -0.76050
O1190       O  0.51465724  0.59659038  0.48015734    -0.75370
O1191       O  0.97118212  0.51132559  0.06393368    -0.60630
C1192       C  0.94619613  0.91217966  0.48508969     0.93650
O1193       O  0.53634543  0.51627338  0.40161295    -0.72580
C1194       C  0.58068495  0.44170511  0.46305651     0.77100
C1195       C  0.85676821  0.94478545  0.47199966     0.78080
O1196       O  0.92977459  0.56336763  0.03023686    -0.57830
O1197       O  0.87051847  0.96388236  0.01145605    -0.49780
O1198       O  0.52605458  0.49801788  0.05820647    -0.75840
O1199       O  0.97340992  0.51475936  0.40836725    -0.59840
C1200       C  0.00444163  0.51575750  0.38367408     0.91870
C1201       C  0.99878627  0.50385678  0.08243478     0.93100
C1202       C  0.64426417  0.57051468  0.99305428     0.77450
O1203       O  0.59035161  0.47808616  0.43437633    -0.49160
O1204       O  0.61494320  0.03780168  0.02437832    -0.50320
O1205       O  0.98235769  0.93520833  0.45838097    -0.63170
O1206       O  0.57269733  0.58964273  0.47823031    -0.64310
C1207       C  0.91488374  0.56577154  0.25034902     0.78250
Tb1208     Tb  0.55823577  0.51156336  0.22950279     1.80740
O1209       O  0.93731009  0.56681149  0.21443273    -0.49770
O1210       O  0.88746252  0.96116635  0.18207969    -0.57220
C1211       C  0.54928854  0.61050143  0.20771998     0.94060
O1212       O  0.63170292  0.58735235  0.22137930    -0.56750
Tb1213     Tb  0.94352044  0.50141199  0.23748263     1.78060
O1214       O  0.58804300  0.96337339  0.24199138    -0.57250
O1215       O  0.93057312  0.92345978  0.26388735    -0.76050
O1216       O  0.50784944  0.58535033  0.22219764    -0.75370
O1217       O  0.96872597  0.50963613  0.31359091    -0.60630
C1218       C  0.95336633  0.90448545  0.26407742     0.93650
O1219       O  0.53306888  0.50636091  0.15304671    -0.72580
C1220       C  0.59199694  0.45448695  0.19966290     0.77100
C1221       C  0.85466867  0.93396009  0.21239001     0.78080
O1222       O  0.90741474  0.53297124  0.28246473    -0.57830
O1223       O  0.86622673  0.93952215  0.25450135    -0.49780
O1224       O  0.53307853  0.51444321  0.30709754    -0.75840
O1225       O  0.96784705  0.49989133  0.15931706    -0.59840
C1226       C  0.99979970  0.50281057  0.13489512     0.91870
C1227       C  0.00218396  0.51378920  0.33149452     0.93100
C1228       C  0.64643636  0.57783988  0.25679251     0.77450
O1229       O  0.57768481  0.47238495  0.17109637    -0.49160
O1230       O  0.61692704  0.03659130  0.27976097    -0.50320
O1231       O  0.99539969  0.93049334  0.25318449    -0.63170
O1232       O  0.57085057  0.58994156  0.20385248    -0.64310
C1233       C  0.58285396  0.74767927  0.21170292     0.25390
C1234       C  0.62957236  0.77636633  0.19635202    -0.22710
C1235       C  0.64406859  0.74932355  0.17112641     0.20300
C1236       C  0.61721672  0.69556748  0.17269445     0.25340
C1237       C  0.57396274  0.66705731  0.19656644    -0.22660
C1238       C  0.55577947  0.69399155  0.21222074     0.20240
F1239       F  0.51336848  0.66878218  0.23330825    -0.12620
F1240       F  0.56531901  0.77063301  0.23421847    -0.14980
F1241       F  0.63434915  0.67150466  0.15173683    -0.14980
F1242       F  0.68460871  0.77392967  0.14582089    -0.12620
C1243       C  0.67798264  0.92402965  0.19712410     0.25390
C1244       C  0.65155400  0.87030864  0.19031832    -0.22710
C1245       C  0.61149707  0.85304053  0.16652624     0.20300
C1246       C  0.59196092  0.88088979  0.16716024     0.25340
C1247       C  0.61431248  0.92883939  0.18668943    -0.22660
C1248       C  0.65876232  0.95163705  0.19784452     0.20240
F1249       F  0.68415193  0.50155550  0.20855710    -0.12620
F1250       F  0.72347251  0.95250360  0.19731451    -0.14980
F1251       F  0.55080341  0.86025151  0.15018962    -0.14980
F1252       F  0.59144571  0.81042030  0.14140410    -0.12620
C1253       C  0.73138564  0.83005564  0.22867503     0.25390
C1254       C  0.71282486  0.85047537  0.20048998    -0.22710
C1255       C  0.74230004  0.88818361  0.16418699     0.20300
C1256       C  0.78931632  0.91420954  0.16566402     0.25340
C1257       C  0.80709317  0.90025598  0.20123584    -0.22660
C1258       C  0.77780020  0.85571319  0.23016544     0.20240
F1259       F  0.79414523  0.83810148  0.26154582    -0.12620
F1260       F  0.70475495  0.78667789  0.25711996    -0.14980
F1261       F  0.81714482  0.45521743  0.13477838    -0.14980
F1262       F  0.72608933  0.90123315  0.12843272    -0.12620
C1263       C  0.60988471  0.75793242  0.48918504     0.25390
C1264       C  0.64351719  0.77915264  0.45069897    -0.22710
C1265       C  0.65534795  0.74678498  0.43230921     0.20300
C1266       C  0.62747232  0.69402896  0.44236266     0.25340
C1267       C  0.58884782  0.67224901  0.47357559    -0.22660
C1268       C  0.58159384  0.70468431  0.49894236     0.20240
F1269       F  0.54698328  0.68482326  0.03292489    -0.12620
F1270       F  0.60354934  0.78782382  0.01710396    -0.14980
F1271       F  0.63565658  0.66386441  0.41729726    -0.14980
F1272       F  0.69001889  0.76467340  0.39894030    -0.12620
C1273       C  0.64849046  0.94024557  0.45746751     0.25390
C1274       C  0.60159907  0.91363515  0.45773038    -0.22710
C1275       C  0.57575993  0.86148513  0.45021537     0.20300
C1276       C  0.59667626  0.83655171  0.44067021     0.25340
C1277       C  0.64404159  0.86168096  0.44352626    -0.22660
C1278       C  0.66950638  0.91476513  0.45221449     0.20240
F1279       F  0.71518227  0.94419657  0.45126854    -0.12620
F1280       F  0.67435171  0.49179528  0.46045447    -0.14980
F1281       F  0.57016295  0.78766809  0.42741027    -0.14980
F1282       F  0.53039643  0.83521398  0.44884400    -0.12620
C1283       C  0.72899068  0.87364184  0.48529546     0.25390
C1284       C  0.71696595  0.86205874  0.43779884    -0.22710
C1285       C  0.75195484  0.87235818  0.40360902     0.20300
C1286       C  0.79664566  0.89790443  0.41532132     0.25340
C1287       C  0.80850000  0.91297638  0.46160186    -0.22660
C1288       C  0.77404653  0.89958765  0.49674511     0.20240
F1289       F  0.78388571  0.91215850  0.04229894    -0.12620
F1290       F  0.69711181  0.86159637  0.52066649    -0.14980
F1291       F  0.82847310  0.90781491  0.38067087    -0.14980
F1292       F  0.74380300  0.85571268  0.35898788    -0.12620
C1293       C  0.63301689  0.78650343  0.29986564     0.25390
C1294       C  0.65874774  0.83224560  0.26924073    -0.22710
C1295       C  0.68655767  0.87777148  0.29347348     0.20300
C1296       C  0.68495850  0.87839249  0.34292501     0.25340
C1297       C  0.66013216  0.83261714  0.37204075    -0.22660
C1298       C  0.63020636  0.78754084  0.34908635     0.20240
F1299       F  0.59819600  0.74275113  0.37332685    -0.12620
F1300       F  0.61704818  0.73928407  0.28492179    -0.14980
F1301       F  0.71354800  0.92403490  0.36187299    -0.14980
F1302       F  0.72271037  0.92041168  0.27132707    -0.12620
C1303       C  0.76131338  0.61069876  0.27981552     0.25390
C1304       C  0.78983787  0.66218960  0.26024183    -0.22710
C1305       C  0.76834026  0.68725179  0.24947244     0.20300
C1306       C  0.72159240  0.66079372  0.25198765     0.25340
C1307       C  0.69430787  0.60902729  0.26706259    -0.22660
C1308       C  0.71437407  0.58535542  0.28440799     0.20240
F1309       F  0.68842998  0.03523935  0.30050189    -0.12620
F1310       F  0.77657173  0.58130667  0.28862780    -0.14980
F1311       F  0.70298359  0.68515642  0.23649794    -0.14980
F1312       F  0.79257205  0.73636032  0.23074244    -0.12620
C1313       C  0.91984864  0.77155861  0.24426696     0.25390
C1314       C  0.87342165  0.74158205  0.26058601    -0.22710
C1315       C  0.86016615  0.76443749  0.29389623     0.20300
C1316       C  0.88677917  0.81781618  0.29729546     0.25340
C1317       C  0.92950468  0.84833586  0.27267540    -0.22660
C1318       C  0.94732400  0.82381300  0.25059445     0.20240
F1319       F  0.99004970  0.85096946  0.22994466    -0.12640
F1320       F  0.93860284  0.75256927  0.21772329    -0.14980
F1321       F  0.87028801  0.83965371  0.32365521    -0.14980
F1322       F  0.82128307  0.73640181  0.32210906    -0.12620
C1323       C  0.90034188  0.62244366  0.20797867     0.25390
C1324       C  0.89801445  0.59852951  0.25119404    -0.22710
C1325       C  0.88086492  0.60771924  0.29252294     0.20300
C1326       C  0.86433717  0.63869603  0.28958744     0.25340
C1327       C  0.86110488  0.65727842  0.24479845    -0.22660
C1328       C  0.88394933  0.65207512  0.20497704     0.20240
F1329       F  0.89545474  0.67963681  0.16288810    -0.12620
F1330       F  0.91951885  0.61829725  0.16729850    -0.14980
F1331       F  0.85005395  0.64900902  0.33023978    -0.14980
F1332       F  0.88062855  0.58742879  0.33547259    -0.12620
C1333       C  0.75749536  0.60439878  0.02506242     0.25390
C1334       C  0.78771287  0.65707572  0.00986092    -0.22710
C1335       C  0.76962208  0.67548177  0.97799849     0.20300
C1336       C  0.72306097  0.64815749  0.97347851     0.25340
C1337       C  0.69313508  0.60107971  0.99907597    -0.22660
C1338       C  0.71097348  0.57930317  0.02482048     0.20240
F1339       F  0.68367371  0.03081974  0.04497587    -0.12620
F1340       F  0.77183149  0.57342257  0.02909804    -0.14980
F1341       F  0.70749960  0.66784632  0.94358735    -0.14980
F1342       F  0.79633353  0.71738849  0.94775084    -0.12620
C1343       C  0.92763216  0.82579867  0.46446965     0.25390
C1344       C  0.91441402  0.85540440  0.48555680    -0.22710
C1345       C  0.87131747  0.82983299  0.50931132     0.20300
C1346       C  0.84499279  0.77660558  0.51747535     0.25340
C1347       C  0.86195274  0.74723065  0.50423118    -0.22660
C1348       C  0.90212889  0.77257668  0.47373717     0.20240
F1349       F  0.91788821  0.74709850  0.45300570    -0.12620
F1350       F  0.96626599  0.84848803  0.43596361    -0.14980
F1351       F  0.80519200  0.75446390  0.04401202    -0.14980
F1352       F  0.85537900  0.85633208  0.02726682    -0.12620
C1353       C  0.90122515  0.67807848  0.53829763     0.25390
C1354       C  0.86424591  0.66770142  0.51253226    -0.22710
C1355       C  0.85329246  0.63546486  0.47403920     0.20300
C1356       C  0.87240037  0.60787919  0.46781122     0.25340
C1357       C  0.90417242  0.61316957  0.49841718    -0.22660
C1358       C  0.91952659  0.64972218  0.53257420     0.20240
F1359       F  0.95286402  0.65860135  0.56011482    -0.12620
F1360       F  0.92021101  0.71594346  0.56904984    -0.14980
F1361       F  0.85811450  0.57405082  0.43315439    -0.14980
F1362       F  0.82398060  0.63012194  0.94229852    -0.12620
C1363       C  0.86012227  0.73929695  0.10751229     0.25390
C1364       C  0.83578665  0.69292528  0.08280716    -0.22710
C1365       C  0.81368735  0.64731691  0.11248284     0.20300
C1366       C  0.80847016  0.64719870  0.16153029     0.25340
C1367       C  0.83402053  0.69308756  0.18529475    -0.22660
C1368       C  0.85653269  0.73934496  0.15703059     0.20240
F1369       F  0.87709513  0.78555231  0.17623192    -0.12620
F1370       F  0.89408931  0.78471003  0.08579680    -0.14980
F1371       F  0.78627002  0.60089200  0.18610341    -0.14980
F1372       F  0.80735907  0.60409731  0.09709480    -0.12620
C1373       C  0.83763760  0.69123787  0.52640131    -0.00690
C1374       C  0.83976285  0.68856769  0.73942571    -0.00690
C1375       C  0.66628639  0.83403114  0.92661250    -0.00690
C1376       C  0.66305400  0.83250197  0.71255324    -0.00690
C1377       C  0.92096921  0.58048291  0.99479823     0.78250
Tb1378     Tb  0.55248264  0.50607822  0.97849267     1.80740
O1379       O  0.92668733  0.56550737  0.95596362    -0.49770
O1380       O  0.88867139  0.95794285  0.94131692    -0.57220
C1381       C  0.55656481  0.61600830  0.97831629     0.94060
O1382       O  0.62780923  0.57228054  0.45508257    -0.56750
Tb1383     Tb  0.94829459  0.51395810  0.98749733     1.78060
O1384       O  0.55451295  0.93476138  0.99819579    -0.57250
O1385       O  0.93792992  0.93712485  0.01277346    -0.76050
O1386       O  0.51465724  0.59659036  0.98015737    -0.75370
O1387       O  0.97118216  0.51132563  0.56393368    -0.60630
C1388       C  0.94619612  0.91217964  0.98508967     0.93650
O1389       O  0.53634538  0.51627332  0.90161296    -0.72580
C1390       C  0.58068494  0.44170509  0.96305654     0.77100
C1391       C  0.85676820  0.94478543  0.97199965     0.78080
O1392       O  0.92977460  0.56336764  0.53023688    -0.57830
O1393       O  0.87051847  0.96388237  0.51145605    -0.49780
O1394       O  0.52605462  0.49801792  0.55820647    -0.75840
O1395       O  0.97340991  0.51475937  0.90836725    -0.59840
C1396       C  0.00444161  0.51575748  0.88367408     0.91870
C1397       C  0.99878632  0.50385682  0.58243478     0.93100
C1398       C  0.64426419  0.57051469  0.49305428     0.77450
O1399       O  0.59035159  0.47808613  0.93437636    -0.49160
O1400       O  0.61494322  0.03780167  0.52437831    -0.50320
O1401       O  0.98235769  0.93520832  0.95838095    -0.63170
O1402       O  0.57269733  0.58964271  0.97823028    -0.64310
C1403       C  0.91488374  0.56577155  0.75034901     0.78250
Tb1404     Tb  0.55823579  0.51156338  0.72950282     1.80740
O1405       O  0.93731000  0.56681141  0.71443267    -0.49770
O1406       O  0.88746252  0.96116641  0.68207970    -0.57220
C1407       C  0.54928858  0.61050146  0.70771995     0.94060
O1408       O  0.63170294  0.58735238  0.72137927    -0.56750
Tb1409     Tb  0.94352046  0.50141201  0.73748261     1.78060
O1410       O  0.58804333  0.96337373  0.74199136    -0.57250
O1411       O  0.93057315  0.92345977  0.76388720    -0.76050
O1412       O  0.50784945  0.58535034  0.72219754    -0.75370
O1413       O  0.96872598  0.50963618  0.81359090    -0.60630
C1414       C  0.95336638  0.90448548  0.76407747     0.93650
O1415       O  0.53306895  0.50636100  0.65304672    -0.72580
C1416       C  0.59199698  0.45448699  0.69966292     0.77100
C1417       C  0.85466868  0.93396011  0.71239002     0.78080
O1418       O  0.90741483  0.53297133  0.78246476    -0.57830
O1419       O  0.86622677  0.93952213  0.75450136    -0.49780
O1420       O  0.53307849  0.51444314  0.80709756    -0.75840
O1421       O  0.96784708  0.49989136  0.65931705    -0.59840
C1422       C  0.99979974  0.50281062  0.63489512     0.91870
C1423       C  0.00218395  0.51378920  0.83149452     0.93100
C1424       C  0.64643639  0.57783995  0.75679251     0.77450
O1425       O  0.57768433  0.47238443  0.67109648    -0.49160
O1426       O  0.61692706  0.03659136  0.77976099    -0.50320
O1427       O  0.99539977  0.93049338  0.75318470    -0.63170
O1428       O  0.57085063  0.58994161  0.70385254    -0.64310
C1429       C  0.58285398  0.74767929  0.71170289     0.25390
C1430       C  0.62957238  0.77636635  0.69635202    -0.22710
C1431       C  0.64406863  0.74932358  0.67112642     0.20300
C1432       C  0.61721676  0.69556751  0.67269444     0.25340
C1433       C  0.57396277  0.66705734  0.69656642    -0.22660
C1434       C  0.55577948  0.69399157  0.71222070     0.20240
F1435       F  0.51336848  0.66878219  0.73330819    -0.12620
F1436       F  0.56531902  0.77063302  0.73421843    -0.14980
F1437       F  0.63434920  0.67150469  0.65173685    -0.14980
F1438       F  0.68460875  0.77392970  0.64582091    -0.12620
C1439       C  0.67798266  0.92402967  0.69712412     0.25390
C1440       C  0.65155402  0.87030866  0.69031833    -0.22710
C1441       C  0.61149710  0.85304056  0.66652622     0.20300
C1442       C  0.59196096  0.88088983  0.66716021     0.25340
C1443       C  0.61431251  0.92883941  0.68668944    -0.22660
C1444       C  0.65876234  0.95163707  0.69784455     0.20240
F1445       F  0.68415195  0.50155551  0.70855715    -0.12620
F1446       F  0.72347253  0.95250361  0.69731453    -0.14980
F1447       F  0.55080345  0.86025157  0.65018958    -0.14980
F1448       F  0.59144575  0.81042034  0.64140408    -0.12620
C1449       C  0.73138565  0.83005567  0.72867506     0.25390
C1450       C  0.71282487  0.85047539  0.70049001    -0.22710
C1451       C  0.74230005  0.88818362  0.66418700     0.20300
C1452       C  0.78931633  0.91420955  0.66566404     0.25340
C1453       C  0.80709318  0.90025600  0.70123587    -0.22660
C1454       C  0.77780021  0.85571321  0.73016547     0.20240
F1455       F  0.79414524  0.83810151  0.76154587    -0.12620
F1456       F  0.70475496  0.78667792  0.75712001    -0.14980
F1457       F  0.81714482  0.45521740  0.63477840    -0.14980
F1458       F  0.72608934  0.90123316  0.62843273    -0.12620
C1459       C  0.60988473  0.75793240  0.98918506     0.25390
C1460       C  0.64351719  0.77915262  0.95069897    -0.22710
C1461       C  0.65534794  0.74678496  0.93230918     0.20300
C1462       C  0.62747230  0.69402894  0.94236263     0.25340
C1463       C  0.58884782  0.67224899  0.97357559    -0.22660
C1464       C  0.58159386  0.70468429  0.99894238     0.20240
F1465       F  0.54698324  0.68482327  0.53292485    -0.12620
F1466       F  0.60354931  0.78782384  0.51710392    -0.14980
F1467       F  0.63565655  0.66386439  0.91729720    -0.14980
F1468       F  0.69001886  0.76467338  0.89894025    -0.12620
C1469       C  0.64849046  0.94024555  0.95746754     0.25390
C1470       C  0.60159907  0.91363513  0.95773043    -0.22710
C1471       C  0.57575993  0.86148511  0.95021544     0.20300
C1472       C  0.59667625  0.83655168  0.94067026     0.25340
C1473       C  0.64404159  0.86168094  0.94352629    -0.22660
C1474       C  0.66950638  0.91476512  0.95221451     0.20240
F1475       F  0.71518227  0.94419655  0.95126855    -0.12620
F1476       F  0.67435171  0.49179527  0.96045445    -0.14980
F1477       F  0.57016293  0.78766806  0.92741034    -0.14980
F1478       F  0.53039642  0.83521396  0.94884409    -0.12620
C1479       C  0.72899068  0.87364182  0.98529547     0.25390
C1480       C  0.71696594  0.86205872  0.93779884    -0.22710
C1481       C  0.75195483  0.87235816  0.90360902     0.20300
C1482       C  0.79664565  0.89790441  0.91532132     0.25340
C1483       C  0.80850000  0.91297636  0.96160186    -0.22660
C1484       C  0.77404652  0.89958763  0.99674512     0.20240
F1485       F  0.78388571  0.91215852  0.54229893    -0.12620
F1486       F  0.69711181  0.86159635  0.02066650    -0.14980
F1487       F  0.82847309  0.90781489  0.88067087    -0.14980
F1488       F  0.74380299  0.85571267  0.85898788    -0.12620
C1489       C  0.63301687  0.78650344  0.79986564     0.25390
C1490       C  0.65874773  0.83224561  0.76924074    -0.22710
C1491       C  0.68655767  0.87777148  0.79347349     0.20300
C1492       C  0.68495850  0.87839249  0.84292503     0.25340
C1493       C  0.66013215  0.83261714  0.87204076    -0.22660
C1494       C  0.63020633  0.78754085  0.84908636     0.20240
F1495       F  0.59819598  0.74275114  0.87332686    -0.12620
F1496       F  0.61704815  0.73928407  0.78492179    -0.14980
F1497       F  0.71354801  0.92403489  0.86187301    -0.14980
F1498       F  0.72271037  0.92041168  0.77132709    -0.12620
C1499       C  0.76131340  0.61069882  0.77981555     0.25390
C1500       C  0.78983790  0.66218965  0.76024185    -0.22710
C1501       C  0.76834029  0.68725185  0.74947245     0.20300
C1502       C  0.72159244  0.66079379  0.75198763     0.25340
C1503       C  0.69430790  0.60902736  0.76706257    -0.22660
C1504       C  0.71437409  0.58535549  0.78440800     0.20240
F1505       F  0.68842999  0.03523940  0.80050193    -0.12620
F1506       F  0.77657175  0.58130673  0.78862785    -0.14980
F1507       F  0.70298364  0.68515648  0.73649790    -0.14980
F1508       F  0.79257209  0.73636039  0.73074246    -0.12620
C1509       C  0.91984868  0.77155865  0.74426699     0.25390
C1510       C  0.87342169  0.74158209  0.76058604    -0.22710
C1511       C  0.86016619  0.76443753  0.79389626     0.20300
C1512       C  0.88677921  0.81781622  0.79729550     0.25340
C1513       C  0.92950473  0.84833589  0.77267546    -0.22660
C1514       C  0.94732405  0.82381304  0.75059450     0.20240
F1515       F  0.99004974  0.85096949  0.72994470    -0.12640
F1516       F  0.93860287  0.75256930  0.71772332    -0.14980
F1517       F  0.87028805  0.83965376  0.82365524    -0.14980
F1518       F  0.82128310  0.73640185  0.82210909    -0.12620
C1519       C  0.90034190  0.62244370  0.70797868     0.25390
C1520       C  0.89801447  0.59852953  0.75119404    -0.22710
C1521       C  0.88086494  0.60771925  0.79252294     0.20300
C1522       C  0.86433719  0.63869606  0.78958746     0.25340
C1523       C  0.86110491  0.65727846  0.74479847    -0.22660
C1524       C  0.88394936  0.65207516  0.70497706     0.20240
F1525       F  0.89545477  0.67963686  0.66288813    -0.12620
F1526       F  0.91951889  0.61829731  0.66729850    -0.14980
F1527       F  0.85005398  0.64900905  0.83023980    -0.14980
F1528       F  0.88062856  0.58742880  0.83547259    -0.12620
C1529       C  0.75749537  0.60439879  0.52506246     0.25390
C1530       C  0.78771288  0.65707574  0.50986095    -0.22710
C1531       C  0.76962210  0.67548178  0.47799851     0.20300
C1532       C  0.72306099  0.64815750  0.47347852     0.25340
C1533       C  0.69313510  0.60107972  0.49907598    -0.22660
C1534       C  0.71097349  0.57930318  0.52482051     0.20240
F1535       F  0.68367373  0.03081974  0.54497584    -0.12620
F1536       F  0.77183150  0.57342258  0.52909807    -0.14980
F1537       F  0.70749962  0.66784633  0.44358734    -0.14980
F1538       F  0.79633355  0.71738850  0.44775086    -0.12620
C1539       C  0.92763215  0.82579865  0.96446963     0.25390
C1540       C  0.91441401  0.85540438  0.98555677    -0.22710
C1541       C  0.87131746  0.82983298  0.00931130     0.20300
C1542       C  0.84499279  0.77660556  0.01747533     0.25340
C1543       C  0.86195273  0.74723064  0.00423115    -0.22660
C1544       C  0.90212889  0.77257666  0.97373714     0.20240
F1545       F  0.91788820  0.74709848  0.95300567    -0.12620
F1546       F  0.96626599  0.84848802  0.93596360    -0.14980
F1547       F  0.80519200  0.75446391  0.54401204    -0.14980
F1548       F  0.85537901  0.85633209  0.52726685    -0.12620
C1549       C  0.90122514  0.67807847  0.03829760     0.25390
C1550       C  0.86424590  0.66770140  0.01253223    -0.22710
C1551       C  0.85329245  0.63546484  0.97403918     0.20300
C1552       C  0.87240037  0.60787918  0.96781119     0.25340
C1553       C  0.90417242  0.61316956  0.99841715    -0.22660
C1554       C  0.91952659  0.64972218  0.03257417     0.20240
F1555       F  0.95286402  0.65860135  0.06011479    -0.12620
F1556       F  0.92021100  0.71594346  0.06904981    -0.14980
F1557       F  0.85811449  0.57405080  0.93315437    -0.14980
F1558       F  0.82398061  0.63012196  0.44229855    -0.12620
C1559       C  0.86012230  0.73929698  0.60751232     0.25390
C1560       C  0.83578667  0.69292531  0.58280719    -0.22710
C1561       C  0.81368737  0.64731694  0.61248287     0.20300
C1562       C  0.80847018  0.64719873  0.66153033     0.25340
C1563       C  0.83402055  0.69308760  0.68529478    -0.22660
C1564       C  0.85653272  0.73934500  0.65703061     0.20240
F1565       F  0.87709517  0.78555235  0.67623194    -0.12620
F1566       F  0.89408933  0.78471006  0.58579681    -0.14980
F1567       F  0.78627004  0.60089204  0.68610344    -0.14980
F1568       F  0.80735907  0.60409733  0.59709483    -0.12620
loop_ 
_geom_bond_atom_site_label_1 
_geom_bond_atom_site_label_2 
_geom_bond_distance 
_geom_bond_site_symmetry_2 
_ccdc_geom_bond_type 
C1          C158   1.589       .  S
C1          C188   1.592       .  S
C1          C367   1.564       .  S
C1          C374   1.560       .  S
C2          C128   1.568       .  S
C2          C138   1.568       .  S
C2          C151   1.576       .  S
C2          C191   1.564       .  S
C3           C88   1.562       .  S
C3          C101   1.560       .  S
C3          C108   1.568       .  S
C3          C121   1.563       .  S
C4           C58   1.578       .  S
C4           C68   1.602       .  S
C4           C78   1.563       .  S
C4          C118   1.598       .  S
C5            O7   1.259       .  A
C5          O216   1.263       .  A
C5          C181   1.475       .  S
Tb6          O17   2.333       .  S
Tb6          O30   2.319       .  S
Tb6          O27   2.343   1_545  S
Tb6         O616   2.349       .  S
Tb6        O1205   2.350   1_445  S
Tb6         O404   2.362   1_545  S
Tb6         O218   2.351   1_545  S
Tb6         O206   2.350       .  S
O7          Tb11   2.353       .  S
O8           C19   1.263       .  A
O8         Tb403   2.349       .  S
C9           O14   1.267       .  A
C9           O30   1.264       .  A
C9           C91   1.475       .  S
O10          C26   1.264       .  A
O10        Tb202   2.350       .  S
Tb11         O23   2.364       .  S
Tb11        O400   2.349   1_545  S
Tb11        O211   2.360       .  S
Tb11        O216   2.361       .  S
Tb11        O798   2.335       .  S
Tb11        O609   2.362   1_545  S
Tb11        O405   2.336   1_545  S
O12         C410   1.262       .  A
O12        Tb398   2.362       .  S
O13          C16   1.267       .  A
O13        Tb403   2.336       .  S
O14        Tb795   2.335   1_455  S
O15          C25   1.279       .  A
O15        Tb207   2.360   1_554  S
C16          O29   1.267       .  A
C16         C168   1.488       .  S
O17         C808   1.272       .  A
C18          O27   1.258       .  A
C18         O404   1.262       .  A
C18         C490   1.466       .  S
C19         O217   1.262       .  A
C19         C111   1.485       .  S
O20         C201   1.263   1_554  A
O20        Tb207   2.361   1_554  S
O21         C215   1.262   1_554  A
O21        Tb599   2.362   1_554  S
O22         C809   1.274   1_465  A
O22        Tb202   2.351   1_564  S
O23          C24   1.277       .  A
C24         O801   1.272       .  A
C24          C51   1.478       .  S
C25         O806   1.274   1_545  A
C25          C50   1.481       .  S
C26         O420   1.265   1_556  A
C26         C161   1.475       .  S
O28         C418   1.265   1_554  A
O28        Tb594   2.349   1_554  S
O29       Tb1182   2.350       .  S
C31          O46   1.262       .  A
C31          O33   1.255       .  A
C31         C148   1.476       .  S
Tb32         O48   2.354       .  S
Tb32         O43   2.351       .  S
Tb32         O36   2.354       .  S
Tb32         O56   2.351       .  S
Tb32         O53   2.396   1_545  S
Tb32        O446   2.355       .  S
Tb32       O1231   2.316   1_445  S
Tb32        O430   2.347   1_545  S
O33         Tb37   2.296       .  S
O34          C45   1.260       .  A
O34        Tb429   2.371       .  S
C35          O40   1.270       .  A
C35          O56   1.273       .  A
C35          C61   1.499       .  S
O36          C52   1.261       .  A
Tb37         O41   2.332       .  S
Tb37         O46   2.390       .  S
Tb37         O49   2.347   1_545  S
Tb37        O426   2.371   1_545  S
Tb37        O824   2.346       .  S
Tb37        O439   2.342   1_545  S
Tb37        O431   2.338   1_545  S
O38         C436   1.254       .  A
O38        Tb424   2.347       .  S
O39          C42   1.268       .  A
O39        Tb429   2.338       .  S
O40        Tb821   2.346   1_455  S
O41          C51   1.270       .  A
C42          O55   1.265       .  A
C42         C141   1.482       .  S
O43         C834   1.275   1_455  A
C44          O53   1.261       .  A
C44         O430   1.254       .  A
C44         C463   1.476       .  S
C45          O47   1.260       .  A
C45          C81   1.474       .  S
O47        Tb429   2.342       .  S
O48         C835   1.274       .  A
O49          C50   1.272   1_565  A
C50         O827   1.275       .  A
C51         O832   1.274       .  A
C52         O446   1.257       .  A
C52         C131   1.472       .  S
O54         C444   1.257       .  A
O54        Tb424   2.355       .  S
O55       Tb1208   2.316       .  S
C57          C58   1.425       .  A
C57          C62   1.402       .  A
C57          F64   1.359       .  S
C58          C59   1.423       .  A
C59          C60   1.403       .  A
C59          F66   1.356       .  S
C60          C61   1.407       .  A
C60          F65   1.358       .  S
C61          C62   1.411       .  A
C62          F63   1.356       .  S
C67          C68   1.429       .  A
C67          C72   1.395       .  A
C67          F74   1.353       .  S
C68          C69   1.432       .  A
C69          C70   1.412       .  A
C69          F76   1.356       .  S
C70          C71   1.399       .  A
C70          F75   1.357       .  S
C71         C436   1.476       .  S
C71          C72   1.392       .  A
C72         F465   1.358       .  S
F73         C464   1.358   1_545  S
C77          C78   1.422       .  A
C77          C82   1.390       .  A
C77          F84   1.355       .  S
C78          C79   1.417       .  A
C79          C80   1.408       .  A
C79          F86   1.357       .  S
C80          C81   1.406       .  A
C80         F477   1.357       .  S
C81          C82   1.396       .  A
C82          F83   1.359       .  S
F85         C472   1.357       .  S
C87          C88   1.421       .  A
C87          C92   1.403       .  A
C87         F290   1.357       .  S
C88          C89   1.419       .  A
C89          C90   1.391       .  A
C89          F96   1.354       .  S
C90          C91   1.400       .  A
C90          F95   1.357       .  S
C91          C92   1.403       .  A
C92         F289   1.358       .  S
F93         C288   1.358   1_554  S
F94         C283   1.357   1_554  S
C97          C98   1.398       .  A
C97         C102   1.396       .  A
C97         F496   1.356       .  S
C98         C410   1.466       .  S
C98          C99   1.392       .  A
C99         C100   1.394       .  A
C99         F106   1.355       .  S
C100        C101   1.426       .  A
C100        F105   1.356       .  S
C101        C102   1.424       .  A
C102        F103   1.356       .  S
F104        C489   1.356       .  S
C107        C108   1.419       .  A
C107        C112   1.403       .  A
C107        F114   1.357       .  S
C108        C109   1.427       .  A
C109        C110   1.395       .  A
C109        F116   1.356       .  S
C110        C111   1.401       .  A
C110        F115   1.359       .  S
C111        C112   1.406       .  A
C112        F309   1.357       .  S
F113        C308   1.357   1_554  S
C117        C118   1.432       .  A
C117        C122   1.390       .  A
C117        F124   1.353       .  S
C118        C119   1.423       .  A
C119        C120   1.394       .  A
C119        F126   1.343       .  S
C120        C121   1.409       .  A
C120        F125   1.356       .  S
C121        C122   1.409       .  A
C122        F123   1.356       .  S
C127        C128   1.425       .  A
C127        C132   1.401       .  A
C127        F134   1.351       .  S
C128        C129   1.430       .  A
C129        C130   1.391       .  A
C129        F136   1.358       .  S
C130        C131   1.393       .  A
C130        F135   1.359       .  S
C131        C132   1.402       .  A
C132        F525   1.359       .  S
F133        C524   1.359       .  S
C137        C138   1.422       .  A
C137        C142   1.389       .  A
C137        F144   1.350       .  S
C138        C139   1.423       .  A
C139        C140   1.404       .  A
C139        F146   1.356       .  S
C140        C141   1.404       .  A
C140        F145   1.358       .  S
C141        C142   1.402       .  A
C142        F143   1.358       .  S
C147        C148   1.394       .  A
C147        C152   1.371       .  A
C147        F154   1.360       .  S
C148        C149   1.408       .  A
C149        C150   1.415       .  A
C149        F156   1.356       .  S
C150        C151   1.419       .  A
C150        F155   1.358       .  S
C151        C152   1.431       .  A
C152        F153   1.356       .  S
C157        C158   1.422       .  A
C157        C162   1.392       .  A
C157        F164   1.353       .  S
C158        C159   1.429   1_554  A
C159        C160   1.401       .  A
C159        F166   1.357       .  S
C160        C161   1.402       .  A
C160        F165   1.355       .  S
C161        C162   1.396   1_556  A
C162        F555   1.359       .  S
F163        C554   1.359       .  S
C167        C168   1.407       .  A
C167        C172   1.401       .  A
C167        F174   1.356       .  S
C168        C169   1.404       .  A
C169        C170   1.396       .  A
C169        F372   1.357       .  S
C170        C171   1.426       .  A
C170        F371   1.359       .  S
C171        C197   1.564       .  S
C171        C172   1.420       .  A
C172        F173   1.356       .  S
F175        C366   1.359       .  S
F176        C365   1.357       .  S
C177        C178   1.422       .  A
C177        C182   1.397       .  A
C177        F184   1.355       .  S
C178        C197   1.560       .  S
C178        C179   1.420       .  A
C179        C180   1.400       .  A
C179        F382   1.357       .  S
C180        C181   1.404       .  A
C180        F185   1.357       .  S
C181        C182   1.398       .  A
C182        F183   1.358       .  S
F186        C375   1.357       .  S
C187        C188   1.436       .  A
C187        C192   1.396       .  A
C187        F194   1.355       .  S
C188        C189   1.415       .  A
C189        C190   1.387       .  A
C189        F196   1.344       .  S
C190        C191   1.414       .  A
C190        F195   1.359       .  S
C191        C192   1.408       .  A
C192        F193   1.355       .  S
C197        C354   1.589       .  S
C197        C384   1.592       .  S
C198        C324   1.568       .  S
C198        C334   1.568       .  S
C198        C347   1.576       .  S
C198        C387   1.564       .  S
C199        C284   1.562       .  S
C199        C297   1.560       .  S
C199        C304   1.568       .  S
C199        C317   1.563       .  S
C200        C254   1.578       .  S
C200        C264   1.602       .  S
C200        C274   1.563       .  S
C200        C314   1.598       .  S
C201        O203   1.259       .  A
C201        C377   1.475       .  S
Tb202       O420   2.349   1_556  S
Tb202      O1401   2.350   1_445  S
Tb202       O600   2.362   1_545  S
Tb202       O213   2.333       .  S
Tb202       O226   2.319       .  S
Tb202       O223   2.343   1_545  S
O203       Tb207   2.353       .  S
O204        C215   1.263       .  A
O204       Tb599   2.349       .  S
C205        O210   1.267       .  A
C205        O226   1.264       .  A
C205        C287   1.475       .  S
O206        C222   1.264       .  A
Tb207       O596   2.349   1_545  S
Tb207       O994   2.335       .  S
Tb207       O413   2.362   1_546  S
Tb207       O219   2.364       .  S
Tb207       O601   2.336   1_546  S
O208        C606   1.262       .  A
O208       Tb594   2.362       .  S
O209        C212   1.267   1_554  A
O209       Tb599   2.336   1_554  S
O210       Tb991   2.335   1_455  S
O211        C221   1.279       .  A
C212        O225   1.267       .  A
C212        C364   1.488       .  S
O213       C1004   1.272       .  A
C214        O600   1.262       .  A
C214        O223   1.258       .  A
C214        C686   1.466       .  S
C215        C307   1.485       .  S
O217       Tb403   2.362       .  S
O218       C1005   1.274   1_465  A
O219        C220   1.277       .  A
C220        O997   1.272       .  A
C220        C247   1.478       .  S
C221       O1002   1.274   1_545  A
C221        C246   1.481       .  S
C222        O616   1.265       .  A
C222        C357   1.475       .  S
O224        C614   1.265       .  A
O224       Tb398   2.349       .  S
O225      Tb1378   2.350       .  S
C227        O242   1.262       .  A
C227        O229   1.255       .  A
C227        C344   1.476       .  S
Tb228       O642   2.355       .  S
Tb228      O1427   2.316   1_445  S
Tb228       O626   2.347   1_545  S
Tb228       O244   2.354       .  S
Tb228       O239   2.351       .  S
Tb228       O232   2.354       .  S
Tb228       O252   2.351       .  S
Tb228       O249   2.396   1_545  S
O229       Tb233   2.296       .  S
O230        C241   1.260       .  A
O230       Tb625   2.371       .  S
C231        O236   1.270       .  A
C231        O252   1.273       .  A
C231        C257   1.499       .  S
O232        C248   1.261       .  A
Tb233       O622   2.371   1_545  S
Tb233       O237   2.332       .  S
Tb233       O242   2.390       .  S
Tb233      O1020   2.346       .  S
Tb233       O635   2.342   1_545  S
Tb233       O245   2.347   1_545  S
Tb233       O627   2.338   1_545  S
O234        C632   1.254       .  A
O234       Tb620   2.347       .  S
O235        C238   1.268       .  A
O235       Tb625   2.338       .  S
O236      Tb1017   2.346   1_455  S
O237        C247   1.270       .  A
C238        O251   1.265       .  A
C238        C337   1.482       .  S
O239       C1030   1.275   1_455  A
C240        O626   1.254       .  A
C240        O249   1.261       .  A
C240        C659   1.476       .  S
C241        O243   1.260       .  A
C241        C277   1.474       .  S
O243       Tb625   2.342       .  S
O244       C1031   1.274       .  A
O245        C246   1.272   1_565  A
C246       O1023   1.275       .  A
C247       O1028   1.274       .  A
C248        O642   1.257       .  A
C248        C327   1.472       .  S
O250        C640   1.257       .  A
O250       Tb620   2.355       .  S
O251      Tb1404   2.316       .  S
C253        C254   1.425       .  A
C253        C258   1.402       .  A
C253        F260   1.359       .  S
C254        C255   1.423       .  A
C255        C256   1.403       .  A
C255        F262   1.356       .  S
C256        C257   1.407       .  A
C256        F261   1.358       .  S
C257        C258   1.411       .  A
C258        F259   1.356       .  S
C263        C264   1.429       .  A
C263        C268   1.395       .  A
C263        F270   1.353       .  S
C264        C265   1.432       .  A
C265        C266   1.412       .  A
C265        F272   1.356       .  S
C266        C267   1.399       .  A
C266        F271   1.357       .  S
C267        C632   1.476       .  S
C267        C268   1.392       .  A
C268        F661   1.358       .  S
F269        C660   1.358   1_545  S
C273        C274   1.422       .  A
C273        C278   1.390       .  A
C273        F280   1.355       .  S
C274        C275   1.417       .  A
C275        C276   1.408       .  A
C275        F282   1.357       .  S
C276        C277   1.406       .  A
C276        F673   1.357       .  S
C277        C278   1.396       .  A
C278        F279   1.359       .  S
F281        C668   1.357       .  S
C283        C284   1.421       .  A
C283        C288   1.403       .  A
C284        C285   1.419       .  A
C285        C286   1.391       .  A
C285        F292   1.354       .  S
C286        C287   1.400       .  A
C286        F291   1.357       .  S
C287        C288   1.403       .  A
C293        C294   1.398       .  A
C293        C298   1.396       .  A
C293        F692   1.356       .  S
C294        C606   1.466       .  S
C294        C295   1.392       .  A
C295        C296   1.394       .  A
C295        F302   1.355       .  S
C296        C297   1.426       .  A
C296        F301   1.356       .  S
C297        C298   1.424       .  A
C298        F299   1.356       .  S
F300        C685   1.356       .  S
C303        C304   1.419       .  A
C303        C308   1.403       .  A
C303        F310   1.357   1_556  S
C304        C305   1.427       .  A
C305        C306   1.395       .  A
C305        F312   1.356       .  S
C306        C307   1.401       .  A
C306        F311   1.359       .  S
C307        C308   1.406       .  A
C313        C314   1.432       .  A
C313        C318   1.390       .  A
C313        F320   1.353       .  S
C314        C315   1.423       .  A
C315        C316   1.394       .  A
C315        F322   1.343       .  S
C316        C317   1.409       .  A
C316        F321   1.356       .  S
C317        C318   1.409       .  A
C318        F319   1.356       .  S
C323        C324   1.425       .  A
C323        C328   1.401       .  A
C323        F330   1.351       .  S
C324        C325   1.430       .  A
C325        C326   1.391       .  A
C325        F332   1.358       .  S
C326        C327   1.393       .  A
C326        F331   1.359       .  S
C327        C328   1.402       .  A
C328        F721   1.359       .  S
F329        C720   1.359       .  S
C333        C334   1.422       .  A
C333        C338   1.389       .  A
C333        F340   1.350       .  S
C334        C335   1.423       .  A
C335        C336   1.404       .  A
C335        F342   1.356       .  S
C336        C337   1.404       .  A
C336        F341   1.358       .  S
C337        C338   1.402       .  A
C338        F339   1.358       .  S
C343        C344   1.394       .  A
C343        C348   1.371       .  A
C343        F350   1.360       .  S
C344        C345   1.408       .  A
C345        C346   1.415       .  A
C345        F352   1.356       .  S
C346        C347   1.419       .  A
C346        F351   1.358       .  S
C347        C348   1.431       .  A
C348        F349   1.356       .  S
C353        C354   1.422       .  A
C353        C358   1.392       .  A
C353        F360   1.353       .  S
C354        C355   1.429       .  A
C355        C356   1.401       .  A
C355        F362   1.357       .  S
C356        C357   1.402       .  A
C356        F361   1.355       .  S
C357        C358   1.396       .  A
C358        F751   1.359       .  S
F359        C750   1.359       .  S
C363        C364   1.407       .  A
C363        C368   1.401       .  A
C363        F370   1.356       .  S
C364        C365   1.404   1_556  A
C365        C366   1.396       .  A
C366        C367   1.426       .  A
C367        C368   1.420   1_554  A
C368        F369   1.356       .  S
C373        C374   1.422       .  A
C373        C378   1.397       .  A
C373        F380   1.355       .  S
C374        C375   1.420   1_554  A
C375        C376   1.400       .  A
C376        C377   1.404       .  A
C376        F381   1.357       .  S
C377        C378   1.398   1_556  A
C378        F379   1.358       .  S
C383        C384   1.436       .  A
C383        C388   1.396       .  A
C383        F390   1.355       .  S
C384        C385   1.415       .  A
C385        C386   1.387       .  A
C385        F392   1.344       .  S
C386        C387   1.414       .  A
C386        F391   1.359       .  S
C387        C388   1.408       .  A
C388        F389   1.355       .  S
C393        C550   1.589       .  S
C393        C759   1.564       .  S
C393        C766   1.560       .  S
C393        C580   1.592       .  S
C394        C520   1.568       .  S
C394        C530   1.567       .  S
C394        C543   1.576       .  S
C394        C583   1.564       .  S
C395        C480   1.562       .  S
C395        C493   1.560       .  S
C395        C500   1.568       .  S
C395        C513   1.563       .  S
C396        C450   1.578       .  S
C396        C460   1.602       .  S
C396        C470   1.563       .  S
C396        C510   1.598       .  S
C397        O608   1.263       .  A
C397        O399   1.259       .  A
C397        C573   1.475       .  S
Tb398       O813   2.350   1_455  S
Tb398       O610   2.351       .  S
Tb398       O409   2.333       .  S
Tb398       O598   2.350       .  S
Tb398       O422   2.319       .  S
Tb398       O419   2.343       .  S
O399       Tb403   2.353       .  S
O400        C411   1.263       .  A
C401        O406   1.267       .  A
C401        O422   1.264       .  A
C401        C483   1.475       .  S
O402        C418   1.264       .  A
O402       Tb594   2.350       .  S
Tb403       O603   2.360       .  S
Tb403       O608   2.361       .  S
Tb403      O1190   2.335       .  S
Tb403       O415   2.364       .  S
O405        C408   1.267       .  A
O406      Tb1187   2.335   1_455  S
O407        C417   1.279       .  A
O407       Tb599   2.360   1_554  S
C408        O421   1.267       .  A
C408        C560   1.488       .  S
O409       C1200   1.272       .  A
C410        O419   1.258       .  A
C411        O609   1.262       .  A
C411        C503   1.485       .  S
O412        C593   1.263   1_554  A
O412       Tb599   2.361   1_554  S
O413        C607   1.262   1_554  A
O414       C1201   1.274   1_455  A
O414       Tb594   2.351   1_554  S
O415        C416   1.276       .  A
C416       O1193   1.272       .  A
C416        C443   1.478       .  S
C417       O1198   1.274       .  A
C417        C442   1.481       .  S
C418        C553   1.475       .  S
O421       Tb790   2.350   1_565  S
C423        O438   1.262       .  A
C423        O425   1.255       .  A
C423        C540   1.476       .  S
Tb424       O839   2.316   1_455  S
Tb424       O440   2.354       .  S
Tb424       O435   2.352       .  S
Tb424       O428   2.354       .  S
Tb424       O448   2.351       .  S
Tb424       O445   2.396       .  S
O425       Tb429   2.296       .  S
O426        C437   1.260       .  A
C427        O432   1.270       .  A
C427        O448   1.273       .  A
C427        C453   1.499       .  S
O428        C444   1.261       .  A
Tb429       O433   2.332       .  S
Tb429       O438   2.390       .  S
Tb429      O1216   2.346       .  S
Tb429       O441   2.347       .  S
O431        C434   1.268       .  A
O432      Tb1213   2.346   1_455  S
O433        C443   1.270       .  A
C434        O447   1.265       .  A
C434        C533   1.482       .  S
O435       C1226   1.275   1_455  A
C436        O445   1.261       .  A
C437        O439   1.260       .  A
C437        C473   1.474       .  S
O440       C1227   1.274       .  A
O441        C442   1.272       .  A
C442       O1219   1.275       .  A
C443       O1224   1.274       .  A
C444        C523   1.472       .  S
O447       Tb816   2.316   1_565  S
C449        C450   1.425       .  A
C449        C454   1.402       .  A
C449        F456   1.359       .  S
C450        C451   1.423       .  A
C451        C452   1.403       .  A
C451        F458   1.356       .  S
C452        C453   1.407       .  A
C452        F457   1.358       .  S
C453        C454   1.411       .  A
C454        F455   1.357       .  S
C459        C460   1.429       .  A
C459        C464   1.395       .  A
C459        F466   1.353       .  S
C460        C461   1.432       .  A
C461        C462   1.412       .  A
C461        F468   1.356       .  S
C462        C463   1.399       .  A
C462        F467   1.357       .  S
C463        C464   1.392       .  A
C469        C470   1.422       .  A
C469        C474   1.390       .  A
C469        F476   1.355       .  S
C470        C471   1.417       .  A
C471        C472   1.408       .  A
C471        F478   1.357       .  S
C472        C473   1.406       .  A
C473        C474   1.396       .  A
C474        F475   1.359       .  S
C479        C480   1.421       .  A
C479        C484   1.403       .  A
C479        F682   1.357       .  S
C480        C481   1.419       .  A
C481        C482   1.391       .  A
C481        F488   1.354       .  S
C482        C483   1.400       .  A
C482        F487   1.357       .  S
C483        C484   1.403       .  A
C484        F681   1.358       .  S
F485        C680   1.358   1_554  S
F486        C675   1.357   1_554  S
C489        C490   1.398       .  A
C489        C494   1.396       .  A
C490        C491   1.392       .  A
C491        C492   1.394       .  A
C491        F498   1.355       .  S
C492        C493   1.426       .  A
C492        F497   1.356       .  S
C493        C494   1.424       .  A
C494        F495   1.356       .  S
C499        C500   1.419       .  A
C499        C504   1.403       .  A
C499        F506   1.357       .  S
C500        C501   1.427       .  A
C501        C502   1.395       .  A
C501        F508   1.356       .  S
C502        C503   1.401       .  A
C502        F507   1.359       .  S
C503        C504   1.406       .  A
C504        F701   1.357       .  S
F505        C700   1.357   1_554  S
C509        C510   1.432       .  A
C509        C514   1.389       .  A
C509        F516   1.353       .  S
C510        C511   1.423       .  A
C511        C512   1.394       .  A
C511        F518   1.343       .  S
C512        C513   1.409       .  A
C512        F517   1.356       .  S
C513        C514   1.409       .  A
C514        F515   1.356       .  S
C519        C520   1.425       .  A
C519        C524   1.401       .  A
C519        F526   1.351       .  S
C520        C521   1.430       .  A
C521        C522   1.391       .  A
C521        F528   1.358       .  S
C522        C523   1.393       .  A
C522        F527   1.359       .  S
C523        C524   1.402       .  A
C529        C530   1.422       .  A
C529        C534   1.389       .  A
C529        F536   1.350       .  S
C530        C531   1.423       .  A
C531        C532   1.404       .  A
C531        F538   1.356       .  S
C532        C533   1.404       .  A
C532        F537   1.358       .  S
C533        C534   1.402       .  A
C534        F535   1.358       .  S
C539        C540   1.394       .  A
C539        C544   1.371       .  A
C539        F546   1.360       .  S
C540        C541   1.408       .  A
C541        C542   1.415       .  A
C541        F548   1.356       .  S
C542        C543   1.419       .  A
C542        F547   1.358       .  S
C543        C544   1.431       .  A
C544        F545   1.356       .  S
C549        C550   1.422       .  A
C549        C554   1.392       .  A
C549        F556   1.353       .  S
C550        C551   1.429   1_554  A
C551        C552   1.401       .  A
C551        F558   1.356       .  S
C552        C553   1.402       .  A
C552        F557   1.355       .  S
C553        C554   1.396   1_556  A
C559        C560   1.407       .  A
C559        C564   1.401       .  A
C559        F566   1.356       .  S
C560        C561   1.404       .  A
C561        C562   1.396       .  A
C561        F764   1.357       .  S
C562        C563   1.426       .  A
C562        F763   1.359       .  S
C563        C589   1.564       .  S
C563        C564   1.420       .  A
C564        F565   1.356       .  S
F567        C758   1.359       .  S
F568        C757   1.357       .  S
C569        C570   1.422       .  A
C569        C574   1.397       .  A
C569        F576   1.355       .  S
C570        C589   1.560       .  S
C570        C571   1.420       .  A
C571        C572   1.400       .  A
C571        F774   1.357       .  S
C572        C573   1.404       .  A
C572        F577   1.357       .  S
C573        C574   1.398       .  A
C574        F575   1.358       .  S
F578        C767   1.357       .  S
C579        C580   1.436       .  A
C579        C584   1.396       .  A
C579        F586   1.355       .  S
C580        C581   1.415       .  A
C581        C582   1.387       .  A
C581        F588   1.344       .  S
C582        C583   1.414       .  A
C582        F587   1.359       .  S
C583        C584   1.408       .  A
C584        F585   1.355       .  S
C589        C746   1.589       .  S
C589        C776   1.592       .  S
C590        C716   1.568       .  S
C590        C726   1.567       .  S
C590        C739   1.576       .  S
C590        C779   1.564       .  S
C591        C676   1.562       .  S
C591        C689   1.560       .  S
C591        C696   1.568       .  S
C591        C709   1.563       .  S
C592        C646   1.578       .  S
C592        C656   1.602       .  S
C592        C666   1.563       .  S
C592        C706   1.598       .  S
C593        O595   1.259       .  A
C593        C769   1.475       .  S
Tb594      O1009   2.350   1_455  S
Tb594       O605   2.333       .  S
Tb594       O618   2.319       .  S
Tb594       O615   2.343       .  S
O595       Tb599   2.353       .  S
O596        C607   1.263       .  A
C597        O602   1.267       .  A
C597        O618   1.264       .  A
C597        C679   1.475       .  S
O598        C614   1.264       .  A
Tb599      O1386   2.335       .  S
Tb599       O611   2.364       .  S
O601        C604   1.267   1_554  A
O602      Tb1383   2.335   1_455  S
O603        C613   1.279       .  A
C604        O617   1.267       .  A
C604        C756   1.488       .  S
O605       C1396   1.272       .  A
C606        O615   1.258       .  A
C607        C699   1.485       .  S
O610       C1397   1.274   1_455  A
O611        C612   1.276       .  A
C612       O1389   1.272       .  A
C612        C639   1.478       .  S
C613       O1394   1.274       .  A
C613        C638   1.481       .  S
C614        C749   1.475       .  S
O617       Tb986   2.350   1_565  S
C619        O634   1.262       .  A
C619        O621   1.255       .  A
C619        C736   1.476       .  S
Tb620      O1035   2.316   1_455  S
Tb620       O636   2.354       .  S
Tb620       O631   2.352       .  S
Tb620       O624   2.354       .  S
Tb620       O644   2.351       .  S
Tb620       O641   2.396       .  S
O621       Tb625   2.296       .  S
O622        C633   1.260       .  A
C623        O628   1.270       .  A
C623        O644   1.273       .  A
C623        C649   1.499       .  S
O624        C640   1.261       .  A
Tb625       O629   2.332       .  S
Tb625       O634   2.390       .  S
Tb625      O1412   2.346       .  S
Tb625       O637   2.347       .  S
O627        C630   1.268       .  A
O628      Tb1409   2.346   1_455  S
O629        C639   1.270       .  A
C630        O643   1.265       .  A
C630        C729   1.482       .  S
O631       C1422   1.275   1_455  A
C632        O641   1.261       .  A
C633        O635   1.260       .  A
C633        C669   1.474       .  S
O636       C1423   1.274       .  A
O637        C638   1.272       .  A
C638       O1415   1.275       .  A
C639       O1420   1.274       .  A
C640        C719   1.472       .  S
O643      Tb1012   2.316   1_565  S
C645        C646   1.425       .  A
C645        C650   1.402       .  A
C645        F652   1.359       .  S
C646        C647   1.423       .  A
C647        C648   1.403       .  A
C647        F654   1.356       .  S
C648        C649   1.407       .  A
C648        F653   1.358       .  S
C649        C650   1.411       .  A
C650        F651   1.357       .  S
C655        C656   1.429       .  A
C655        C660   1.395       .  A
C655        F662   1.353       .  S
C656        C657   1.432       .  A
C657        C658   1.412       .  A
C657        F664   1.356       .  S
C658        C659   1.399       .  A
C658        F663   1.357       .  S
C659        C660   1.392       .  A
C665        C666   1.422       .  A
C665        C670   1.390       .  A
C665        F672   1.355       .  S
C666        C667   1.417       .  A
C667        C668   1.408       .  A
C667        F674   1.357       .  S
C668        C669   1.406       .  A
C669        C670   1.396       .  A
C670        F671   1.359       .  S
C675        C676   1.421       .  A
C675        C680   1.403       .  A
C676        C677   1.419       .  A
C677        C678   1.391       .  A
C677        F684   1.354       .  S
C678        C679   1.400       .  A
C678        F683   1.357       .  S
C679        C680   1.403       .  A
C685        C686   1.398       .  A
C685        C690   1.396       .  A
C686        C687   1.392       .  A
C687        C688   1.394       .  A
C687        F694   1.355       .  S
C688        C689   1.426       .  A
C688        F693   1.356       .  S
C689        C690   1.424       .  A
C690        F691   1.356       .  S
C695        C696   1.419       .  A
C695        C700   1.403       .  A
C695        F702   1.357   1_556  S
C696        C697   1.427       .  A
C697        C698   1.395       .  A
C697        F704   1.356       .  S
C698        C699   1.401       .  A
C698        F703   1.359       .  S
C699        C700   1.406       .  A
C705        C706   1.432       .  A
C705        C710   1.390       .  A
C705        F712   1.353       .  S
C706        C707   1.423       .  A
C707        C708   1.394       .  A
C707        F714   1.343       .  S
C708        C709   1.409       .  A
C708        F713   1.356       .  S
C709        C710   1.409       .  A
C710        F711   1.356       .  S
C715        C716   1.425       .  A
C715        C720   1.401       .  A
C715        F722   1.351       .  S
C716        C717   1.430       .  A
C717        C718   1.391       .  A
C717        F724   1.358       .  S
C718        C719   1.393       .  A
C718        F723   1.359       .  S
C719        C720   1.402       .  A
C725        C726   1.422       .  A
C725        C730   1.389       .  A
C725        F732   1.350       .  S
C726        C727   1.423       .  A
C727        C728   1.404       .  A
C727        F734   1.356       .  S
C728        C729   1.404       .  A
C728        F733   1.358       .  S
C729        C730   1.402       .  A
C730        F731   1.358       .  S
C735        C736   1.394       .  A
C735        C740   1.371       .  A
C735        F742   1.360       .  S
C736        C737   1.408       .  A
C737        C738   1.415       .  A
C737        F744   1.356       .  S
C738        C739   1.419       .  A
C738        F743   1.358       .  S
C739        C740   1.431       .  A
C740        F741   1.356       .  S
C745        C746   1.422       .  A
C745        C750   1.392       .  A
C745        F752   1.353       .  S
C746        C747   1.429       .  A
C747        C748   1.401       .  A
C747        F754   1.356       .  S
C748        C749   1.402       .  A
C748        F753   1.355       .  S
C749        C750   1.396       .  A
C755        C756   1.407       .  A
C755        C760   1.401       .  A
C755        F762   1.356       .  S
C756        C757   1.404   1_556  A
C757        C758   1.396       .  A
C758        C759   1.426       .  A
C759        C760   1.420   1_554  A
C760        F761   1.356       .  S
C765        C766   1.422       .  A
C765        C770   1.397       .  A
C765        F772   1.355       .  S
C766        C767   1.420   1_554  A
C767        C768   1.400       .  A
C768        C769   1.404       .  A
C768        F773   1.357       .  S
C769        C770   1.398   1_556  A
C770        F771   1.358       .  S
C775        C776   1.436       .  A
C775        C780   1.396       .  A
C775        F782   1.355       .  S
C776        C777   1.415       .  A
C777        C778   1.387       .  A
C777        F784   1.344       .  S
C778        C779   1.414       .  A
C778        F783   1.359       .  S
C779        C780   1.408       .  A
C780        F781   1.355       .  S
C785        C942   1.589       .  S
C785       C1151   1.564       .  S
C785       C1158   1.560       .  S
C785        C972   1.592       .  S
C786        C912   1.568       .  S
C786        C922   1.568       .  S
C786        C935   1.576       .  S
C786        C975   1.564       .  S
C787        C872   1.562       .  S
C787        C885   1.560       .  S
C787        C892   1.568       .  S
C787        C905   1.563       .  S
C788        C842   1.578       .  S
C788        C852   1.602       .  S
C788        C862   1.563       .  S
C788        C902   1.598       .  S
C789       O1000   1.263       .  A
C789        O791   1.259       .  A
C789        C965   1.475       .  S
Tb790      O1400   2.349       .  S
Tb790      O1188   2.362   1_545  S
Tb790      O1002   2.351   1_545  S
Tb790       O801   2.333       .  S
Tb790       O990   2.350       .  S
Tb790       O814   2.319       .  S
Tb790       O811   2.343   1_545  S
O791       Tb795   2.353       .  S
O792        C803   1.263       .  A
O792      Tb1187   2.349       .  S
C793        O798   1.267       .  A
C793        O814   1.264       .  A
C793        C875   1.475       .  S
O794        C810   1.264       .  A
O794       Tb986   2.350       .  S
Tb795      O1184   2.349   1_545  S
Tb795       O995   2.360       .  S
Tb795      O1000   2.361       .  S
Tb795      O1393   2.362   1_545  S
Tb795       O807   2.364       .  S
Tb795      O1189   2.336   1_545  S
O796       C1194   1.262       .  A
O796      Tb1182   2.362       .  S
O797        C800   1.267       .  A
O797      Tb1187   2.336       .  S
O799        C809   1.279       .  A
O799       Tb991   2.360   1_554  S
C800        O813   1.267       .  A
C800        C952   1.488       .  S
C802       O1188   1.262       .  A
C802        O811   1.258       .  A
C802       C1274   1.466       .  S
C803       O1001   1.262       .  A
C803        C895   1.485       .  S
O804        C985   1.263   1_554  A
O804       Tb991   2.361   1_554  S
O805        C999   1.262   1_554  A
O805      Tb1383   2.362   1_554  S
O806       Tb986   2.351   1_564  S
O807        C808   1.277   1_655  A
C808        C835   1.478       .  S
C809        C834   1.481       .  S
C810       O1204   1.265   1_556  A
C810        C945   1.475       .  S
O812       C1202   1.265   1_554  A
O812      Tb1378   2.349   1_554  S
C815        O830   1.262       .  A
C815        O817   1.255       .  A
C815        C932   1.476       .  S
Tb816      O1230   2.355       .  S
Tb816      O1214   2.347   1_545  S
Tb816       O832   2.354       .  S
Tb816       O827   2.351       .  S
Tb816       O820   2.354       .  S
Tb816       O840   2.351       .  S
Tb816       O837   2.396   1_545  S
O817       Tb821   2.296       .  S
O818        C829   1.260       .  A
O818      Tb1213   2.371       .  S
C819        O824   1.270       .  A
C819        O840   1.273       .  A
C819        C845   1.499       .  S
O820        C836   1.261       .  A
Tb821      O1210   2.371   1_545  S
Tb821       O825   2.332       .  S
Tb821       O830   2.390       .  S
Tb821      O1223   2.342   1_545  S
Tb821       O833   2.347   1_545  S
Tb821      O1215   2.338   1_545  S
O822       C1220   1.254       .  A
O822      Tb1208   2.347       .  S
O823        C826   1.268       .  A
O823      Tb1213   2.338       .  S
O825        C835   1.270   1_655  A
C826        O839   1.265       .  A
C826        C925   1.482       .  S
C828       O1214   1.254       .  A
C828        O837   1.261       .  A
C828       C1247   1.476       .  S
C829        O831   1.260       .  A
C829        C865   1.474       .  S
O831      Tb1213   2.342       .  S
O833        C834   1.272   1_565  A
C836       O1230   1.257       .  A
C836        C915   1.472       .  S
O838       C1228   1.257       .  A
O838      Tb1208   2.355       .  S
C841        C842   1.425       .  A
C841        C846   1.402       .  A
C841        F848   1.359       .  S
C842        C843   1.423       .  A
C843        C844   1.403       .  A
C843        F850   1.356       .  S
C844        C845   1.407       .  A
C844        F849   1.358       .  S
C845        C846   1.411       .  A
C846        F847   1.356       .  S
C851        C852   1.429       .  A
C851        C856   1.395       .  A
C851        F858   1.353       .  S
C852        C853   1.432       .  A
C853        C854   1.412       .  A
C853        F860   1.356       .  S
C854        C855   1.399       .  A
C854        F859   1.357       .  S
C855       C1220   1.476       .  S
C855        C856   1.392       .  A
C856       F1249   1.358       .  S
F857       C1248   1.358   1_545  S
C861        C862   1.422       .  A
C861        C866   1.390       .  A
C861        F868   1.355       .  S
C862        C863   1.417       .  A
C863        C864   1.408       .  A
C863        F870   1.357       .  S
C864        C865   1.406       .  A
C864       F1261   1.357       .  S
C865        C866   1.396       .  A
C866        F867   1.359       .  S
F869       C1256   1.357       .  S
C871        C872   1.421       .  A
C871        C876   1.403       .  A
C871       F1074   1.357       .  S
C872        C873   1.419       .  A
C873        C874   1.391       .  A
C873        F880   1.354       .  S
C874        C875   1.400       .  A
C874        F879   1.357       .  S
C875        C876   1.403       .  A
C876       F1073   1.358       .  S
F877       C1072   1.358   1_554  S
F878       C1067   1.357   1_554  S
C881        C882   1.398       .  A
C881        C886   1.396       .  A
C881       F1280   1.356       .  S
C882       C1194   1.466       .  S
C882        C883   1.392       .  A
C883        C884   1.394       .  A
C883        F890   1.355       .  S
C884        C885   1.426       .  A
C884        F889   1.356       .  S
C885        C886   1.424       .  A
C886        F887   1.356       .  S
F888       C1273   1.356       .  S
C891        C892   1.419       .  A
C891        C896   1.403       .  A
C891        F898   1.357       .  S
C892        C893   1.427       .  A
C893        C894   1.395       .  A
C893        F900   1.356       .  S
C894        C895   1.401       .  A
C894        F899   1.359       .  S
C895        C896   1.406       .  A
C896       F1093   1.357       .  S
F897       C1092   1.357   1_554  S
C901        C902   1.432       .  A
C901        C906   1.390       .  A
C901        F908   1.353       .  S
C902        C903   1.423       .  A
C903        C904   1.394       .  A
C903        F910   1.343       .  S
C904        C905   1.409       .  A
C904        F909   1.356       .  S
C905        C906   1.409       .  A
C906        F907   1.356       .  S
C911        C912   1.425       .  A
C911        C916   1.401       .  A
C911        F918   1.351       .  S
C912        C913   1.430       .  A
C913        C914   1.391       .  A
C913        F920   1.358       .  S
C914        C915   1.393       .  A
C914        F919   1.359       .  S
C915        C916   1.402       .  A
C916       F1309   1.359       .  S
F917       C1308   1.359       .  S
C921        C922   1.422       .  A
C921        C926   1.389       .  A
C921        F928   1.350       .  S
C922        C923   1.423       .  A
C923        C924   1.404       .  A
C923        F930   1.356       .  S
C924        C925   1.404       .  A
C924        F929   1.358       .  S
C925        C926   1.402       .  A
C926        F927   1.358       .  S
C931        C932   1.394       .  A
C931        C936   1.371       .  A
C931        F938   1.360       .  S
C932        C933   1.408       .  A
C933        C934   1.415       .  A
C933        F940   1.356       .  S
C934        C935   1.419       .  A
C934        F939   1.358       .  S
C935        C936   1.431       .  A
C936        F937   1.356       .  S
C941        C942   1.422       .  A
C941        C946   1.392       .  A
C941        F948   1.353       .  S
C942        C943   1.429   1_554  A
C943        C944   1.401       .  A
C943        F950   1.357       .  S
C944        C945   1.402       .  A
C944        F949   1.355       .  S
C945        C946   1.396   1_556  A
C946       F1339   1.359       .  S
F947       C1338   1.359       .  S
C951        C952   1.407       .  A
C951        C956   1.401       .  A
C951        F958   1.356       .  S
C952        C953   1.404       .  A
C953        C954   1.396       .  A
C953       F1156   1.357       .  S
C954        C955   1.426       .  A
C954       F1155   1.359       .  S
C955        C981   1.564       .  S
C955        C956   1.420       .  A
C956        F957   1.356       .  S
F959       C1150   1.359       .  S
F960       C1149   1.357       .  S
C961        C962   1.422       .  A
C961        C966   1.397       .  A
C961        F968   1.355       .  S
C962        C981   1.560       .  S
C962        C963   1.420       .  A
C963        C964   1.400       .  A
C963       F1166   1.357       .  S
C964        C965   1.404       .  A
C964        F969   1.357       .  S
C965        C966   1.398       .  A
C966        F967   1.358       .  S
F970       C1159   1.357       .  S
C971        C972   1.436       .  A
C971        C976   1.396       .  A
C971        F978   1.355       .  S
C972        C973   1.415       .  A
C973        C974   1.387       .  A
C973        F980   1.344       .  S
C974        C975   1.414       .  A
C974        F979   1.359       .  S
C975        C976   1.408       .  A
C976        F977   1.355       .  S
C981       C1138   1.589       .  S
C981       C1168   1.592       .  S
C982       C1108   1.568       .  S
C982       C1118   1.568       .  S
C982       C1131   1.576       .  S
C982       C1171   1.564       .  S
C983       C1068   1.562       .  S
C983       C1081   1.560       .  S
C983       C1088   1.568       .  S
C983       C1101   1.563       .  S
C984       C1038   1.578       .  S
C984       C1048   1.602       .  S
C984       C1058   1.563       .  S
C984       C1098   1.598       .  S
C985        O987   1.259       .  A
C985       C1161   1.475       .  S
Tb986      O1204   2.349   1_556  S
Tb986      O1384   2.362   1_545  S
Tb986       O997   2.333       .  S
Tb986      O1010   2.319       .  S
Tb986      O1007   2.343   1_545  S
O987       Tb991   2.353       .  S
O988        C999   1.263       .  A
O988      Tb1383   2.349       .  S
C989        O994   1.267       .  A
C989       O1010   1.264       .  A
C989       C1071   1.475       .  S
O990       C1006   1.264       .  A
Tb991      O1380   2.349   1_545  S
Tb991      O1197   2.362   1_546  S
Tb991      O1003   2.364       .  S
Tb991      O1385   2.336   1_546  S
O992       C1390   1.262       .  A
O992      Tb1378   2.362       .  S
O993        C996   1.267   1_554  A
O993      Tb1383   2.336   1_554  S
O995       C1005   1.279       .  A
C996       O1009   1.267       .  A
C996       C1148   1.488       .  S
C998       O1384   1.262       .  A
C998       O1007   1.258       .  A
C998       C1470   1.466       .  S
C999       C1091   1.485       .  S
O1001     Tb1187   2.362       .  S
O1003      C1004   1.277   1_655  A
C1004      C1031   1.478       .  S
C1005      C1030   1.481       .  S
C1006      O1400   1.265       .  A
C1006      C1141   1.475       .  S
O1008      C1398   1.265       .  A
O1008     Tb1182   2.349       .  S
C1011      O1026   1.262       .  A
C1011      O1013   1.255       .  A
C1011      C1128   1.476       .  S
Tb1012     O1426   2.355       .  S
Tb1012     O1410   2.347   1_545  S
Tb1012     O1028   2.354       .  S
Tb1012     O1023   2.351       .  S
Tb1012     O1016   2.354       .  S
Tb1012     O1036   2.351       .  S
Tb1012     O1033   2.396   1_545  S
O1013     Tb1017   2.296       .  S
O1014      C1025   1.260       .  A
O1014     Tb1409   2.371       .  S
C1015      O1020   1.270       .  A
C1015      O1036   1.273       .  A
C1015      C1041   1.499       .  S
O1016      C1032   1.261       .  A
Tb1017     O1406   2.371   1_545  S
Tb1017     O1021   2.332       .  S
Tb1017     O1026   2.390       .  S
Tb1017     O1419   2.342   1_545  S
Tb1017     O1029   2.347   1_545  S
Tb1017     O1411   2.338   1_545  S
O1018      C1416   1.254       .  A
O1018     Tb1404   2.347       .  S
O1019      C1022   1.268       .  A
O1019     Tb1409   2.338       .  S
O1021      C1031   1.270   1_655  A
C1022      O1035   1.265       .  A
C1022      C1121   1.482       .  S
C1024      O1410   1.254       .  A
C1024      O1033   1.261       .  A
C1024      C1443   1.476       .  S
C1025      O1027   1.260       .  A
C1025      C1061   1.474       .  S
O1027     Tb1409   2.342       .  S
O1029      C1030   1.272   1_565  A
C1032      O1426   1.257       .  A
C1032      C1111   1.472       .  S
O1034      C1424   1.257       .  A
O1034     Tb1404   2.355       .  S
C1037      C1038   1.425       .  A
C1037      C1042   1.402       .  A
C1037      F1044   1.359       .  S
C1038      C1039   1.423       .  A
C1039      C1040   1.403       .  A
C1039      F1046   1.356       .  S
C1040      C1041   1.407       .  A
C1040      F1045   1.358       .  S
C1041      C1042   1.411       .  A
C1042      F1043   1.356       .  S
C1047      C1048   1.429       .  A
C1047      C1052   1.395       .  A
C1047      F1054   1.353       .  S
C1048      C1049   1.432       .  A
C1049      C1050   1.412       .  A
C1049      F1056   1.356       .  S
C1050      C1051   1.399       .  A
C1050      F1055   1.357       .  S
C1051      C1416   1.476       .  S
C1051      C1052   1.392       .  A
C1052      F1445   1.358       .  S
F1053      C1444   1.358   1_545  S
C1057      C1058   1.422       .  A
C1057      C1062   1.390       .  A
C1057      F1064   1.355       .  S
C1058      C1059   1.417       .  A
C1059      C1060   1.408       .  A
C1059      F1066   1.357       .  S
C1060      C1061   1.406       .  A
C1060      F1457   1.357       .  S
C1061      C1062   1.396       .  A
C1062      F1063   1.359       .  S
F1065      C1452   1.357       .  S
C1067      C1068   1.421       .  A
C1067      C1072   1.403       .  A
C1068      C1069   1.419       .  A
C1069      C1070   1.391       .  A
C1069      F1076   1.354       .  S
C1070      C1071   1.400       .  A
C1070      F1075   1.357       .  S
C1071      C1072   1.403       .  A
C1077      C1078   1.398       .  A
C1077      C1082   1.396       .  A
C1077      F1476   1.356       .  S
C1078      C1390   1.466       .  S
C1078      C1079   1.392       .  A
C1079      C1080   1.394       .  A
C1079      F1086   1.355       .  S
C1080      C1081   1.426       .  A
C1080      F1085   1.356       .  S
C1081      C1082   1.424       .  A
C1082      F1083   1.356       .  S
F1084      C1469   1.356       .  S
C1087      C1088   1.419       .  A
C1087      C1092   1.403       .  A
C1087      F1094   1.357   1_556  S
C1088      C1089   1.427       .  A
C1089      C1090   1.395       .  A
C1089      F1096   1.356       .  S
C1090      C1091   1.401       .  A
C1090      F1095   1.359       .  S
C1091      C1092   1.406       .  A
C1097      C1098   1.432       .  A
C1097      C1102   1.390       .  A
C1097      F1104   1.353       .  S
C1098      C1099   1.423       .  A
C1099      C1100   1.394       .  A
C1099      F1106   1.343       .  S
C1100      C1101   1.409       .  A
C1100      F1105   1.356       .  S
C1101      C1102   1.409       .  A
C1102      F1103   1.356       .  S
C1107      C1108   1.425       .  A
C1107      C1112   1.401       .  A
C1107      F1114   1.351       .  S
C1108      C1109   1.430       .  A
C1109      C1110   1.391       .  A
C1109      F1116   1.358       .  S
C1110      C1111   1.393       .  A
C1110      F1115   1.359       .  S
C1111      C1112   1.402       .  A
C1112      F1505   1.359       .  S
F1113      C1504   1.359       .  S
C1117      C1118   1.422       .  A
C1117      C1122   1.389       .  A
C1117      F1124   1.350       .  S
C1118      C1119   1.423       .  A
C1119      C1120   1.404       .  A
C1119      F1126   1.356       .  S
C1120      C1121   1.404       .  A
C1120      F1125   1.358       .  S
C1121      C1122   1.402       .  A
C1122      F1123   1.358       .  S
C1127      C1128   1.394       .  A
C1127      C1132   1.371       .  A
C1127      F1134   1.360       .  S
C1128      C1129   1.408       .  A
C1129      C1130   1.415       .  A
C1129      F1136   1.356       .  S
C1130      C1131   1.419       .  A
C1130      F1135   1.358       .  S
C1131      C1132   1.431       .  A
C1132      F1133   1.356       .  S
C1137      C1138   1.422       .  A
C1137      C1142   1.392       .  A
C1137      F1144   1.353       .  S
C1138      C1139   1.429       .  A
C1139      C1140   1.401       .  A
C1139      F1146   1.357       .  S
C1140      C1141   1.402       .  A
C1140      F1145   1.355       .  S
C1141      C1142   1.396       .  A
C1142      F1535   1.359       .  S
F1143      C1534   1.359       .  S
C1147      C1148   1.407       .  A
C1147      C1152   1.401       .  A
C1147      F1154   1.356       .  S
C1148      C1149   1.404   1_556  A
C1149      C1150   1.396       .  A
C1150      C1151   1.426       .  A
C1151      C1152   1.420   1_554  A
C1152      F1153   1.356       .  S
C1157      C1158   1.422       .  A
C1157      C1162   1.397       .  A
C1157      F1164   1.355       .  S
C1158      C1159   1.420   1_554  A
C1159      C1160   1.400       .  A
C1160      C1161   1.404       .  A
C1160      F1165   1.357       .  S
C1161      C1162   1.398   1_556  A
C1162      F1163   1.358       .  S
C1167      C1168   1.436       .  A
C1167      C1172   1.396       .  A
C1167      F1174   1.355       .  S
C1168      C1169   1.415       .  A
C1169      C1170   1.387       .  A
C1169      F1176   1.344       .  S
C1170      C1171   1.414       .  A
C1170      F1175   1.359       .  S
C1171      C1172   1.408       .  A
C1172      F1173   1.355       .  S
C1177      C1334   1.589       .  S
C1177      C1543   1.564       .  S
C1177      C1550   1.560       .  S
C1177      C1364   1.592       .  S
C1178      C1304   1.568       .  S
C1178      C1314   1.567       .  S
C1178      C1327   1.576       .  S
C1178      C1367   1.564       .  S
C1179      C1264   1.562       .  S
C1179      C1277   1.560       .  S
C1179      C1284   1.568       .  S
C1179      C1297   1.563       .  S
C1180      C1234   1.578       .  S
C1180      C1244   1.602       .  S
C1180      C1254   1.563       .  S
C1180      C1294   1.598       .  S
C1181      O1392   1.263       .  A
C1181      O1183   1.259       .  A
C1181      C1357   1.475       .  S
Tb1182     O1394   2.351       .  S
Tb1182     O1193   2.333       .  S
Tb1182     O1382   2.350       .  S
Tb1182     O1206   2.319       .  S
Tb1182     O1203   2.343       .  S
O1183     Tb1187   2.353       .  S
O1184      C1195   1.263       .  A
C1185      O1190   1.267       .  A
C1185      O1206   1.264       .  A
C1185      C1267   1.475       .  S
O1186      C1202   1.264       .  A
O1186     Tb1378   2.350       .  S
Tb1187     O1387   2.360       .  S
Tb1187     O1392   2.361       .  S
Tb1187     O1199   2.364       .  S
O1189      C1192   1.267       .  A
O1191      C1201   1.279       .  A
O1191     Tb1383   2.360   1_554  S
C1192      O1205   1.267       .  A
C1192      C1344   1.488       .  S
C1194      O1203   1.258       .  A
C1195      O1393   1.262       .  A
C1195      C1287   1.485       .  S
O1196      C1377   1.263   1_554  A
O1196     Tb1383   2.361   1_554  S
O1197      C1391   1.262   1_554  A
O1198     Tb1378   2.351   1_554  S
O1199      C1200   1.276   1_655  A
C1200      C1227   1.478       .  S
C1201      C1226   1.481       .  S
C1202      C1337   1.475       .  S
C1207      O1222   1.262       .  A
C1207      O1209   1.255       .  A
C1207      C1324   1.476       .  S
Tb1208     O1224   2.354       .  S
Tb1208     O1219   2.352       .  S
Tb1208     O1212   2.354       .  S
Tb1208     O1232   2.351       .  S
Tb1208     O1229   2.396       .  S
O1209     Tb1213   2.296       .  S
O1210      C1221   1.260       .  A
C1211      O1216   1.270       .  A
C1211      O1232   1.273       .  A
C1211      C1237   1.499       .  S
O1212      C1228   1.261       .  A
Tb1213     O1217   2.332       .  S
Tb1213     O1222   2.390       .  S
Tb1213     O1225   2.347       .  S
O1215      C1218   1.268       .  A
O1217      C1227   1.270   1_655  A
C1218      O1231   1.265       .  A
C1218      C1317   1.482       .  S
C1220      O1229   1.261       .  A
C1221      O1223   1.260       .  A
C1221      C1257   1.474       .  S
O1225      C1226   1.272       .  A
C1228      C1307   1.472       .  S
C1233      C1234   1.425       .  A
C1233      C1238   1.402       .  A
C1233      F1240   1.359       .  S
C1234      C1235   1.423       .  A
C1235      C1236   1.403       .  A
C1235      F1242   1.356       .  S
C1236      C1237   1.407       .  A
C1236      F1241   1.358       .  S
C1237      C1238   1.411       .  A
C1238      F1239   1.357       .  S
C1243      C1244   1.429       .  A
C1243      C1248   1.395       .  A
C1243      F1250   1.353       .  S
C1244      C1245   1.432       .  A
C1245      C1246   1.412       .  A
C1245      F1252   1.356       .  S
C1246      C1247   1.399       .  A
C1246      F1251   1.357       .  S
C1247      C1248   1.392       .  A
C1253      C1254   1.422       .  A
C1253      C1258   1.390       .  A
C1253      F1260   1.355       .  S
C1254      C1255   1.417       .  A
C1255      C1256   1.408       .  A
C1255      F1262   1.357       .  S
C1256      C1257   1.406       .  A
C1257      C1258   1.396       .  A
C1258      F1259   1.359       .  S
C1263      C1264   1.421       .  A
C1263      C1268   1.403       .  A
C1263      F1466   1.357       .  S
C1264      C1265   1.419       .  A
C1265      C1266   1.391       .  A
C1265      F1272   1.354       .  S
C1266      C1267   1.400       .  A
C1266      F1271   1.357       .  S
C1267      C1268   1.403       .  A
C1268      F1465   1.358       .  S
F1269      C1464   1.358   1_554  S
F1270      C1459   1.357   1_554  S
C1273      C1274   1.398       .  A
C1273      C1278   1.396       .  A
C1274      C1275   1.392       .  A
C1275      C1276   1.394       .  A
C1275      F1282   1.355       .  S
C1276      C1277   1.426       .  A
C1276      F1281   1.356       .  S
C1277      C1278   1.424       .  A
C1278      F1279   1.356       .  S
C1283      C1284   1.419       .  A
C1283      C1288   1.403       .  A
C1283      F1290   1.357       .  S
C1284      C1285   1.427       .  A
C1285      C1286   1.395       .  A
C1285      F1292   1.356       .  S
C1286      C1287   1.401       .  A
C1286      F1291   1.359       .  S
C1287      C1288   1.406       .  A
C1288      F1485   1.357       .  S
F1289      C1484   1.357   1_554  S
C1293      C1294   1.432       .  A
C1293      C1298   1.390       .  A
C1293      F1300   1.353       .  S
C1294      C1295   1.423       .  A
C1295      C1296   1.394       .  A
C1295      F1302   1.343       .  S
C1296      C1297   1.409       .  A
C1296      F1301   1.356       .  S
C1297      C1298   1.409       .  A
C1298      F1299   1.356       .  S
C1303      C1304   1.425       .  A
C1303      C1308   1.401       .  A
C1303      F1310   1.351       .  S
C1304      C1305   1.430       .  A
C1305      C1306   1.391       .  A
C1305      F1312   1.358       .  S
C1306      C1307   1.393       .  A
C1306      F1311   1.359       .  S
C1307      C1308   1.402       .  A
C1313      C1314   1.422       .  A
C1313      C1318   1.389       .  A
C1313      F1320   1.350       .  S
C1314      C1315   1.423       .  A
C1315      C1316   1.404       .  A
C1315      F1322   1.356       .  S
C1316      C1317   1.404       .  A
C1316      F1321   1.358       .  S
C1317      C1318   1.402       .  A
C1318      F1319   1.358       .  S
C1323      C1324   1.394       .  A
C1323      C1328   1.371       .  A
C1323      F1330   1.360       .  S
C1324      C1325   1.408       .  A
C1325      C1326   1.415       .  A
C1325      F1332   1.356       .  S
C1326      C1327   1.419       .  A
C1326      F1331   1.358       .  S
C1327      C1328   1.431       .  A
C1328      F1329   1.356       .  S
C1333      C1334   1.422       .  A
C1333      C1338   1.392       .  A
C1333      F1340   1.353       .  S
C1334      C1335   1.429   1_554  A
C1335      C1336   1.401       .  A
C1335      F1342   1.356       .  S
C1336      C1337   1.402       .  A
C1336      F1341   1.355       .  S
C1337      C1338   1.396   1_556  A
C1343      C1344   1.407       .  A
C1343      C1348   1.401       .  A
C1343      F1350   1.356       .  S
C1344      C1345   1.404       .  A
C1345      C1346   1.396       .  A
C1345      F1548   1.357       .  S
C1346      C1347   1.426       .  A
C1346      F1547   1.359       .  S
C1347      C1373   1.564       .  S
C1347      C1348   1.420       .  A
C1348      F1349   1.356       .  S
F1351      C1542   1.359       .  S
F1352      C1541   1.357       .  S
C1353      C1354   1.422       .  A
C1353      C1358   1.397       .  A
C1353      F1360   1.355       .  S
C1354      C1373   1.560       .  S
C1354      C1355   1.420       .  A
C1355      C1356   1.400       .  A
C1355      F1558   1.357       .  S
C1356      C1357   1.404       .  A
C1356      F1361   1.357       .  S
C1357      C1358   1.398       .  A
C1358      F1359   1.358       .  S
F1362      C1551   1.357       .  S
C1363      C1364   1.436       .  A
C1363      C1368   1.396       .  A
C1363      F1370   1.355       .  S
C1364      C1365   1.415       .  A
C1365      C1366   1.387       .  A
C1365      F1372   1.344       .  S
C1366      C1367   1.414       .  A
C1366      F1371   1.359       .  S
C1367      C1368   1.408       .  A
C1368      F1369   1.355       .  S
C1373      C1530   1.589       .  S
C1373      C1560   1.592       .  S
C1374      C1500   1.568       .  S
C1374      C1510   1.567       .  S
C1374      C1523   1.576       .  S
C1374      C1563   1.564       .  S
C1375      C1460   1.562       .  S
C1375      C1473   1.560       .  S
C1375      C1480   1.568       .  S
C1375      C1493   1.563       .  S
C1376      C1430   1.578       .  S
C1376      C1440   1.602       .  S
C1376      C1450   1.563       .  S
C1376      C1490   1.598       .  S
C1377      O1379   1.259       .  A
C1377      C1553   1.475       .  S
Tb1378     O1389   2.333       .  S
Tb1378     O1402   2.319       .  S
Tb1378     O1399   2.343       .  S
O1379     Tb1383   2.353       .  S
O1380      C1391   1.263       .  A
C1381      O1386   1.267       .  A
C1381      O1402   1.264       .  A
C1381      C1463   1.475       .  S
O1382      C1398   1.264       .  A
Tb1383     O1395   2.364       .  S
O1385      C1388   1.267   1_554  A
O1387      C1397   1.279       .  A
C1388      O1401   1.267       .  A
C1388      C1540   1.488       .  S
C1390      O1399   1.258       .  A
C1391      C1483   1.485       .  S
O1395      C1396   1.276   1_655  A
C1396      C1423   1.478       .  S
C1397      C1422   1.481       .  S
C1398      C1533   1.475       .  S
C1403      O1418   1.262       .  A
C1403      O1405   1.255       .  A
C1403      C1520   1.476       .  S
Tb1404     O1420   2.354       .  S
Tb1404     O1415   2.352       .  S
Tb1404     O1408   2.354       .  S
Tb1404     O1428   2.351       .  S
Tb1404     O1425   2.396       .  S
O1405     Tb1409   2.296       .  S
O1406      C1417   1.260       .  A
C1407      O1412   1.270       .  A
C1407      O1428   1.273       .  A
C1407      C1433   1.499       .  S
O1408      C1424   1.261       .  A
Tb1409     O1413   2.332       .  S
Tb1409     O1418   2.390       .  S
Tb1409     O1421   2.347       .  S
O1411      C1414   1.268       .  A
O1413      C1423   1.270   1_655  A
C1414      O1427   1.265       .  A
C1414      C1513   1.482       .  S
C1416      O1425   1.261       .  A
C1417      O1419   1.260       .  A
C1417      C1453   1.474       .  S
O1421      C1422   1.272       .  A
C1424      C1503   1.472       .  S
C1429      C1430   1.425       .  A
C1429      C1434   1.402       .  A
C1429      F1436   1.359       .  S
C1430      C1431   1.423       .  A
C1431      C1432   1.403       .  A
C1431      F1438   1.356       .  S
C1432      C1433   1.407       .  A
C1432      F1437   1.358       .  S
C1433      C1434   1.411       .  A
C1434      F1435   1.357       .  S
C1439      C1440   1.429       .  A
C1439      C1444   1.395       .  A
C1439      F1446   1.353       .  S
C1440      C1441   1.432       .  A
C1441      C1442   1.412       .  A
C1441      F1448   1.356       .  S
C1442      C1443   1.399       .  A
C1442      F1447   1.357       .  S
C1443      C1444   1.392       .  A
C1449      C1450   1.422       .  A
C1449      C1454   1.390       .  A
C1449      F1456   1.355       .  S
C1450      C1451   1.417       .  A
C1451      C1452   1.408       .  A
C1451      F1458   1.357       .  S
C1452      C1453   1.406       .  A
C1453      C1454   1.396       .  A
C1454      F1455   1.359       .  S
C1459      C1460   1.421       .  A
C1459      C1464   1.403       .  A
C1460      C1461   1.419       .  A
C1461      C1462   1.391       .  A
C1461      F1468   1.354       .  S
C1462      C1463   1.400       .  A
C1462      F1467   1.357       .  S
C1463      C1464   1.403       .  A
C1469      C1470   1.398       .  A
C1469      C1474   1.396       .  A
C1470      C1471   1.392       .  A
C1471      C1472   1.394       .  A
C1471      F1478   1.355       .  S
C1472      C1473   1.426       .  A
C1472      F1477   1.356       .  S
C1473      C1474   1.424       .  A
C1474      F1475   1.356       .  S
C1479      C1480   1.419       .  A
C1479      C1484   1.403       .  A
C1479      F1486   1.357   1_556  S
C1480      C1481   1.427       .  A
C1481      C1482   1.395       .  A
C1481      F1488   1.356       .  S
C1482      C1483   1.401       .  A
C1482      F1487   1.359       .  S
C1483      C1484   1.406       .  A
C1489      C1490   1.432       .  A
C1489      C1494   1.390       .  A
C1489      F1496   1.353       .  S
C1490      C1491   1.423       .  A
C1491      C1492   1.394       .  A
C1491      F1498   1.343       .  S
C1492      C1493   1.409       .  A
C1492      F1497   1.356       .  S
C1493      C1494   1.409       .  A
C1494      F1495   1.356       .  S
C1499      C1500   1.425       .  A
C1499      C1504   1.401       .  A
C1499      F1506   1.351       .  S
C1500      C1501   1.430       .  A
C1501      C1502   1.391       .  A
C1501      F1508   1.358       .  S
C1502      C1503   1.393       .  A
C1502      F1507   1.359       .  S
C1503      C1504   1.402       .  A
C1509      C1510   1.422       .  A
C1509      C1514   1.389       .  A
C1509      F1516   1.350       .  S
C1510      C1511   1.423       .  A
C1511      C1512   1.404       .  A
C1511      F1518   1.356       .  S
C1512      C1513   1.404       .  A
C1512      F1517   1.358       .  S
C1513      C1514   1.402       .  A
C1514      F1515   1.358       .  S
C1519      C1520   1.394       .  A
C1519      C1524   1.371       .  A
C1519      F1526   1.360       .  S
C1520      C1521   1.408       .  A
C1521      C1522   1.415       .  A
C1521      F1528   1.356       .  S
C1522      C1523   1.419       .  A
C1522      F1527   1.358       .  S
C1523      C1524   1.431       .  A
C1524      F1525   1.356       .  S
C1529      C1530   1.422       .  A
C1529      C1534   1.392       .  A
C1529      F1536   1.353       .  S
C1530      C1531   1.429       .  A
C1531      C1532   1.401       .  A
C1531      F1538   1.356       .  S
C1532      C1533   1.402       .  A
C1532      F1537   1.355       .  S
C1533      C1534   1.396       .  A
C1539      C1540   1.407       .  A
C1539      C1544   1.401       .  A
C1539      F1546   1.356       .  S
C1540      C1541   1.404   1_556  A
C1541      C1542   1.396       .  A
C1542      C1543   1.426       .  A
C1543      C1544   1.420   1_554  A
C1544      F1545   1.356       .  S
C1549      C1550   1.422       .  A
C1549      C1554   1.397       .  A
C1549      F1556   1.355       .  S
C1550      C1551   1.420   1_554  A
C1551      C1552   1.400       .  A
C1552      C1553   1.404       .  A
C1552      F1557   1.357       .  S
C1553      C1554   1.398   1_556  A
C1554      F1555   1.358       .  S
C1559      C1560   1.436       .  A
C1559      C1564   1.396       .  A
C1559      F1566   1.355       .  S
C1560      C1561   1.415       .  A
C1561      C1562   1.387       .  A
C1561      F1568   1.344       .  S
C1562      C1563   1.414       .  A
C1562      F1567   1.359       .  S
C1563      C1564   1.408       .  A
C1564      F1565   1.355       .  S
