geometry optimzed in LAMMPS
_audit_creation_date              2020-11-30 
_audit_creation_method            'lammps2cif' 
_symmetry_space_group_name_H-M    'P1' 
_symmetry_Int_Tables_number       1 
_symmetry_cell_setting            triclinic 
loop_ 
_symmetry_equiv_pos_as_xyz 
  x,y,z 
_cell_length_a                    49.88641876665821 
_cell_length_b                    49.556397369893226 
_cell_length_c                    63.20059321268232 
_cell_angle_alpha                 89.42886356454424 
_cell_angle_beta                  90.6828077669695 
_cell_angle_gamma                 120.45588913877734 
loop_ 
_atom_site_label 
_atom_site_type_symbol 
_atom_site_fract_x 
_atom_site_fract_y 
_atom_site_fract_z 
_atom_site_charge 
C1          C  0.25929184  0.24998586  0.06797977    -0.02900
C2          C  0.49176575  0.24791757  0.06911776    -0.03080
C3          C  0.25350096  0.01872945  0.07060440    -0.02900
O4          O  0.21186616  0.33747085  0.01882807    -0.82210
C5          C  0.11290580  0.31419733  0.96205547     0.97140
O6          O  0.11720812  0.29494684  0.97222405    -0.71330
O7          O  0.16995605  0.29798545  0.96644904    -0.74920
Al8        Al  0.14803143  0.29828159  0.99081519     1.48980
C9          C  0.19895186  0.31133183  0.96396955     0.92400
O10         O  0.21596949  0.38433477  0.96895698    -0.81140
O11         O  0.16897360  0.38377231  0.01738043    -0.74700
Al12       Al  0.21140150  0.36024546  0.99385275     1.90120
O13         O  0.17856775  0.39439876  0.97461197    -0.73770
O14         O  0.11545887  0.33258494  0.00922243    -0.73620
O15         O  0.12741600  0.34268371  0.96688638    -0.79280
O16         O  0.12291759  0.29306946  0.01473186    -0.77480
O17         O  0.16957569  0.33997615  0.99244715    -1.13610
O18         O  0.17381800  0.29179218  0.00894807    -0.72810
C19         C  0.19727279  0.30776697  0.02026175     0.97910
C20         C  0.20206042  0.39899426  0.96440924     0.94300
Al21       Al  0.14948957  0.36139348  0.99216134     1.55560
O22         O  0.21721421  0.33289972  0.97612149    -0.77430
C23         C  0.10807587  0.30695748  0.01817570     0.98470
C24         C  0.19788760  0.40000493  0.02056286     0.93350
O25         O  0.21605540  0.39349436  0.01125448    -0.82750
C26         C  0.15134632  0.13971755  0.16459946     0.02720
C27         C  0.14785306  0.10990456  0.16265521    -0.13430
C28         C  0.16700039  0.10478887  0.14912732     0.00220
C29         C  0.18595878  0.12857946  0.13485558    -0.11960
C30         C  0.18724194  0.15738238  0.13513311     0.02710
C31         C  0.17178615  0.16367722  0.15091702    -0.11380
H32         H  0.13061113  0.09087535  0.17218208     0.08300
H33         H  0.20034511  0.12539576  0.12366350     0.05830
H34         H  0.17508919  0.18696482  0.15208161     0.05680
C35         C  0.15887702  0.52921719  0.17076698     0.02720
C36         C  0.16161149  0.05879829  0.16977656    -0.13430
C37         C  0.16781858  0.07522646  0.15050103     0.00220
C38         C  0.17552878  0.06349067  0.13292517    -0.11960
C39         C  0.17792313  0.03663492  0.13480848     0.02710
C40         C  0.16814640  0.51859620  0.15337804    -0.11380
H41         H  0.15632580  0.06749042  0.18381109     0.08300
H42         H  0.18121002  0.07571211  0.11790045     0.05830
H43         H  0.16774512  0.49654828  0.15425254     0.05680
C44         C  0.98512693  0.35557270  0.16085993     0.02720
C45         C  0.45866298  0.35813042  0.16098518    -0.13430
C46         C  0.43544844  0.34332642  0.14546835     0.00220
C47         C  0.44052397  0.32725759  0.12892193    -0.11960
C48         C  0.46766782  0.32540593  0.12840071     0.02710
C49         C  0.99004885  0.34002104  0.14442956    -0.11380
H50         H  0.45669000  0.37199828  0.17330671     0.08300
H51         H  0.42340086  0.31530180  0.11675823     0.05830
H52         H  0.01105299  0.33862956  0.14440928     0.05680
C53         C  0.35501552  0.32902304  0.13232027     0.02720
C54         C  0.34563917  0.33392047  0.15220011    -0.13430
C55         C  0.36663101  0.34561755  0.16930393     0.00220
C56         C  0.39478366  0.34604617  0.16749186    -0.11960
C57         C  0.40545493  0.34297277  0.14757779     0.02710
C58         C  0.38645629  0.33821294  0.12985602    -0.11380
H59         H  0.32217810  0.32863024  0.15461706     0.08300
H60         H  0.40840216  0.34970681  0.18172074     0.05830
H61         H  0.39523247  0.33889398  0.11417871     0.05680
C62         C  0.34143764  0.42042117  0.22835152    -0.02900
C63         C  0.07632456  0.16073904  0.22838477    -0.02900
C64         C  0.07666987  0.42570004  0.22849938    -0.02900
O65         O  0.11704984  0.27986074  0.28926324    -0.82210
C66         C  0.22367769  0.36366784  0.33336778     0.97140
O67         O  0.20763374  0.33434885  0.33086406    -0.71330
O68         O  0.15678245  0.27952900  0.32332635    -0.74920
Al69       Al  0.18481181  0.31374564  0.30594395     1.48980
C70         C  0.13414862  0.27496220  0.33442273     0.92400
O71         O  0.12093169  0.34258224  0.32560056    -0.81140
O72         O  0.15678224  0.38069475  0.28648268    -0.74700
Al73       Al  0.12302217  0.31367147  0.30714005     1.90120
O74         O  0.16848852  0.38240220  0.32866011    -0.73770
O75         O  0.20705098  0.37694275  0.27846354    -0.73620
O76         O  0.21982121  0.38209951  0.32150343    -0.79280
O77         O  0.21813854  0.34199259  0.28882418    -0.77480
O78         O  0.16448956  0.33477841  0.30568772    -1.13610
O79         O  0.16416101  0.29141504  0.28093283    -0.72810
C80         C  0.13506413  0.27493879  0.27818327     0.97910
C81         C  0.14051004  0.36786791  0.33438930     0.94300
Al82       Al  0.18609098  0.37673603  0.30382751     1.55560
O83         O  0.12174611  0.29134781  0.33178505    -0.77430
C84         C  0.22325623  0.36413826  0.27662299     0.98470
C85         C  0.13084270  0.36173414  0.27834579     0.93350
O86         O  0.11741492  0.33295606  0.28265926    -0.82750
C87         C  0.47763678  0.13957884  0.16822573     0.02720
C88         C  0.98533603  0.15995942  0.15088099    -0.13430
C89         C  0.46587597  0.15045746  0.13294253     0.00220
C90         C  0.43993135  0.12034502  0.13214866    -0.11960
C91         C  0.43080944  0.10077331  0.15001895     0.02710
C92         C  0.44975827  0.11090562  0.16814222    -0.11380
H93         H  0.00655427  0.18257670  0.15113583     0.08300
H94         H  0.42647776  0.11286490  0.11761107     0.05830
H95         H  0.44374101  0.09628149  0.18213557     0.05680
C96         C  0.37039036  0.01642177  0.16210132     0.02720
C97         C  0.34715095  0.01131021  0.14725273    -0.13430
C98         C  0.35040312  0.03588900  0.13423603     0.00220
C99         C  0.37671481  0.06554721  0.13670942    -0.11960
C100        C  0.40173375  0.06995266  0.14956949     0.02710
C101        C  0.39845134  0.04486750  0.16204605    -0.11380
H102        H  0.32644582  0.48841523  0.14621509     0.08300
H103        H  0.37771774  0.08502092  0.12809108     0.05830
H104        H  0.41703367  0.04733996  0.17234371     0.05680
C105        C  0.41412026  0.32562624  0.56259290    -0.02900
C106        C  0.40469813  0.09159383  0.56762689    -0.02900
C107        C  0.18021036  0.09046530  0.55911220    -0.02900
O108        O  0.05127900  0.00899768  0.61640343    -0.82210
C109        C  0.46853876  0.02953736  0.66514878     0.97140
O110        O  0.49246918  0.05017875  0.65579447    -0.71330
O111        O  0.04284196  0.05040957  0.66514529    -0.74920
Al112      Al  0.02341387  0.04867096  0.63907121     1.48980
C113        C  0.05845893  0.03784399  0.67006497     0.92400
O114        O  0.50320567  0.46404334  0.66436670    -0.81140
O115        O  0.46325789  0.46387275  0.61038222    -0.74700
Al116      Al  0.02558006  0.48730100  0.63996651     1.90120
O117        O  0.45667602  0.44941785  0.65272173    -0.73770
O118        O  0.45828528  0.01456110  0.61784461    -0.73620
O119        O  0.45622591  0.00116130  0.66027685    -0.79280
O120        O  0.50589053  0.05322561  0.61310926    -0.77480
O121        O  0.50392078  0.00692341  0.63783094    -1.13610
O122        O  0.05927244  0.05598447  0.62312040    -0.72810
C123        C  0.06687156  0.03837811  0.61382962     0.97910
C124        C  0.47418164  0.44723623  0.66640454     0.94300
Al125      Al  0.46241744  0.48438386  0.63533552     1.55560
O126        O  0.05634634  0.01554209  0.65941048    -0.77430
C127        C  0.47715014  0.04048849  0.60924667     0.98470
C128        C  0.47586278  0.44732382  0.60954410     0.93350
O129        O  0.49927875  0.45406547  0.62109576    -0.82750
C130        C  0.18185150  0.47657374  0.47061524     0.02720
C131        C  0.20731863  0.47154713  0.47261488    -0.13430
C132        C  0.23017689  0.48639318  0.48877871     0.00220
C133        C  0.22423429  0.50259034  0.50448456    -0.11960
C134        C  0.19839609  0.50634281  0.50322627     0.02710
C135        C  0.17832234  0.49483888  0.48584092    -0.11380
H136        H  0.20942968  0.45678652  0.46110231     0.08300
H137        H  0.24035095  0.01455188  0.51719881     0.05830
H138        H  0.16006576  0.50048176  0.48412636     0.05680
C139        C  0.31310975  0.00715716  0.50435590     0.02720
C140        C  0.28163539  0.99860049  0.50602145    -0.13430
C141        C  0.26128690  0.98814483  0.48830105     0.00220
C142        C  0.27236487  0.98198455  0.46966852    -0.11960
C143        C  0.30204228  0.98527768  0.46895592     0.02710
C144        C  0.32298390  0.99946831  0.48587101    -0.11380
H145        H  0.27406087  0.00185808  0.52120622     0.08300
H146        H  0.25793912  0.47341649  0.45568859     0.05830
H147        H  0.34651674  0.00384606  0.48480741     0.05680
C148        C  0.46736204  0.17741172  0.49493203     0.02720
C149        C  0.48007753  0.16963696  0.47820094    -0.13430
C150        C  0.50286096  0.19331081  0.46553768     0.00220
C151        C  0.51102843  0.22458183  0.46906202    -0.11960
C152        C  0.49434293  0.23219016  0.48323841     0.02710
C153        C  0.47288320  0.20804191  0.49664310    -0.11380
H154        H  0.47362790  0.14544198  0.47598970     0.08300
H155        H  0.03030345  0.24279432  0.46031611     0.05830
H156        H  0.46052322  0.21239172  0.50877747     0.05680
C157        C  0.01498089  0.31511969  0.46604455     0.02720
C158        C  0.00251170  0.32355104  0.48268995    -0.13430
C159        C  0.98865970  0.30316817  0.49980295     0.00220
C160        C  0.98864622  0.27489112  0.50076416    -0.11960
C161        C  0.99897864  0.26470560  0.48359232     0.02710
C162        C  0.01200179  0.28534840  0.46612006    -0.11380
H163        H  0.00329145  0.34581127  0.48221217     0.08300
H164        H  0.47915330  0.26063040  0.51476257     0.05830
H165        H  0.01986279  0.27877189  0.45229750     0.05680
C166        C  0.31520421  0.30429509  0.50001838     0.02720
C167        C  0.29218421  0.27325271  0.49650342    -0.13430
C168        C  0.27300302  0.26483389  0.47843825     0.00220
C169        C  0.28251862  0.28737321  0.46202611    -0.11960
C170        C  0.30339249  0.31957804  0.46588057     0.02710
C171        C  0.31797154  0.32764037  0.48593099    -0.11380
H172        H  0.29012219  0.25608483  0.50801149     0.08300
H173        H  0.27318236  0.28006204  0.44629330     0.05830
H174        H  0.33268784  0.35177582  0.49046437     0.05680
C175        C  0.20328584  0.18553764  0.49457175     0.02720
C176        C  0.23326074  0.21172736  0.49399774    -0.13430
C177        C  0.24242609  0.23420649  0.47747907     0.00220
C178        C  0.22007152  0.22883937  0.46152297    -0.11960
C179        C  0.19029321  0.20203958  0.46182188     0.02710
C180        C  0.18233300  0.18030095  0.47817048    -0.11380
H181        H  0.24876282  0.21381142  0.50676092     0.08300
H182        H  0.22465125  0.24584903  0.44925113     0.05830
H183        H  0.15925934  0.15969132  0.47853073     0.05680
C184        C  0.08911889  0.41303956  0.40115763    -0.02900
C185        C  0.08577537  0.18177288  0.40514573    -0.02900
C186        C  0.32281254  0.41668152  0.39997290    -0.02900
O187        O  0.01117484  0.06198715  0.33998584    -0.82210
C188        C  0.03030454  0.47872807  0.29452712     0.97140
O189        O  0.04448961  0.50768897  0.29878801    -0.71330
O190        O  0.04945549  0.06213784  0.30827351    -0.74920
Al191      Al  0.04247601  0.02655666  0.32462655     1.48980
C192        C  0.03273081  0.06752816  0.29595161     0.92400
O193        O  0.44850514  0.00051656  0.30364669    -0.81140
O194        O  0.44703877  0.46090227  0.34153364    -0.74700
Al195      Al  0.48185409  0.02840304  0.32194784     1.90120
O196        O  0.45612381  0.46125751  0.29880544    -0.73770
O197        O  0.99918410  0.46012470  0.34878088    -0.73620
O198        O  0.50731199  0.45960040  0.30552410    -0.79280
O199        O  0.04661710  0.99627414  0.34130204    -0.77480
O200        O  0.00098317  0.00622050  0.32359329    -1.13610
O201        O  0.04441802  0.04800470  0.35044067    -0.72810
C202        C  0.03297873  0.06563943  0.35230576     0.97910
C203        C  0.44227014  0.47579525  0.29408855     0.94300
Al204      Al  0.47936372  0.46430136  0.32374476     1.55560
O205        O  0.00358649  0.05022297  0.29690005    -0.77430
C206        C  0.02810366  0.47201348  0.35147863     0.98470
C207        C  0.44142333  0.48011658  0.35059433     0.93350
O208        O  0.45747607  0.50907897  0.34659219    -0.82750
C209        C  0.41698151  0.35107708  0.73591023    -0.02900
C210        C  0.15325170  0.08708609  0.73816985    -0.02900
C211        C  0.42203551  0.07870318  0.73269626    -0.02900
O212        O  0.28579826  0.12881741  0.68694006    -0.82210
C213        C  0.36435673  0.23090675  0.63273535     0.97140
O214        O  0.34111566  0.22680473  0.64297783    -0.71330
O215        O  0.28815589  0.17470836  0.63507176    -0.74920
Al216      Al  0.31106489  0.19404227  0.66045174     1.48980
C217        C  0.27005535  0.14576523  0.63220134     0.92400
O218        O  0.32218921  0.12446233  0.63552299    -0.81140
O219        O  0.37171280  0.16818657  0.68557881    -0.74700
Al220      Al  0.30557289  0.12902646  0.66125145     1.90120
O221        O  0.37114056  0.15866170  0.64245619    -0.73770
O222        O  0.37811612  0.22318729  0.67788820    -0.73620
O223        O  0.37405202  0.21210825  0.63551676    -0.79280
O224        O  0.33232159  0.21654264  0.68542287    -0.77480
O225        O  0.32901516  0.17074126  0.66083045    -1.13610
O226        O  0.27692404  0.16653907  0.67796851    -0.72810
C227        C  0.27046212  0.14257586  0.68892016     0.97910
C228        C  0.35069409  0.13621232  0.63162996     0.94300
Al229      Al  0.37011896  0.18888294  0.66046213     1.55560
O230        O  0.27222284  0.12674152  0.64449118    -0.77430
C231        C  0.36154894  0.23118967  0.68783335     0.98470
C232        C  0.35881270  0.13893324  0.68772092     0.93350
O233        O  0.33402177  0.12136180  0.67762055    -0.82750
C234        C  0.31304763  0.46897737  0.82882074     0.02720
C235        C  0.33349356  0.99216320  0.81475162    -0.13430
C236        C  0.34807872  0.98486176  0.79896684     0.00220
C237        C  0.34472982  0.45514203  0.79856711    -0.11960
C238        C  0.32342417  0.43102499  0.81183949     0.02710
C239        C  0.30679667  0.43809450  0.82647041    -0.11380
H240        H  0.33801248  0.01590154  0.81597372     0.08300
H241        H  0.35879659  0.45125290  0.78751872     0.05830
H242        H  0.28940901  0.41991649  0.83644606     0.05680
C243        C  0.32948058  0.36225342  0.79226691     0.02720
C244        C  0.32659925  0.38888421  0.79204417    -0.13430
C245        C  0.31944376  0.39910832  0.81066863     0.00220
C246        C  0.31107624  0.37958946  0.82860067    -0.11960
C247        C  0.30772074  0.34968101  0.82756692     0.02710
C248        C  0.31783619  0.34145155  0.80941067    -0.11380
H249        H  0.33320929  0.40302751  0.77781122     0.08300
H250        H  0.30696522  0.38734104  0.84352303     0.05830
H251        H  0.31799932  0.31969510  0.80896603     0.05680
C252        C  0.12643490  0.98725750  0.80157608     0.02720
C253        C  0.14919757  0.99196876  0.81660770    -0.13430
C254        C  0.14364903  0.46885375  0.83162929     0.00220
C255        C  0.11541835  0.44020221  0.83090798    -0.11960
C256        C  0.09193370  0.43464803  0.81578947     0.02710
C257        C  0.09778168  0.45906742  0.80144088    -0.11380
H258        H  0.17130028  0.01378152  0.81664390     0.08300
H259        H  0.11262286  0.42227632  0.84201194     0.05830
H260        H  0.08047496  0.45668798  0.78999574     0.05680
C261        C  0.01628503  0.36348912  0.79548195     0.02720
C262        C  0.50989029  0.34203733  0.81209204    -0.13430
C263        C  0.02811623  0.35149675  0.83058601     0.00220
C264        C  0.05253354  0.38273423  0.83217945    -0.11960
C265        C  0.06226587  0.40326961  0.81465955     0.02710
C266        C  0.04335425  0.39316695  0.79625970    -0.11380
H267        H  0.48968468  0.31873299  0.81111029     0.08300
H268        H  0.06431950  0.39040624  0.84727130     0.05830
H269        H  0.04839134  0.40840024  0.78271618     0.05680
C270        C  0.13584643  0.17203539  0.79461024     0.02720
C271        C  0.10717384  0.17071768  0.79461150    -0.13430
C272        C  0.09457858  0.17378485  0.81357524     0.00220
C273        C  0.11189725  0.17862168  0.83238365    -0.11960
C274        C  0.14364689  0.18741637  0.83187457     0.02710
C275        C  0.15531425  0.18441679  0.81227840    -0.11380
H276        H  0.09390405  0.16471984  0.78001718     0.08300
H277        H  0.10011756  0.17488778  0.84717715     0.05830
H278        H  0.17908338  0.19002231  0.81077732     0.05680
C279        C  0.03405102  0.19646173  0.82552455     0.02720
C280        C  0.51603472  0.18629502  0.80704402    -0.13430
C281        C  0.51858534  0.16558711  0.79322823     0.00220
C282        C  0.04215444  0.15839731  0.79723087    -0.11960
C283        C  0.06443246  0.17358320  0.81339606     0.02710
C284        C  0.05900837  0.19126768  0.82817567    -0.11380
H285        H  0.49912252  0.19343794  0.80406255     0.08300
H286        H  0.04348759  0.14138014  0.78740200     0.05830
H287        H  0.07452141  0.20195311  0.84149904     0.05680
C288        C  0.24198514  0.25903880  0.89652448    -0.02900
C289        C  0.24404743  0.49341410  0.89470190    -0.02900
C290        C  0.01345787  0.26125716  0.89703331    -0.02900
O291        O  0.29080581  0.13048086  0.94530086    -0.82210
C292        C  0.39018732  0.20482347  0.00285121     0.97140
O293        O  0.38591030  0.18080281  0.99291686    -0.71330
O294        O  0.33185141  0.12903600  0.99805603    -0.74920
Al295      Al  0.35418842  0.15198366  0.97346646     1.48980
C296        C  0.30267125  0.11285143  0.99973970     0.92400
O297        O  0.29007245  0.17167082  0.99553586    -0.81140
O298        O  0.33692559  0.21717220  0.94492490    -0.74700
Al299      Al  0.29271557  0.15252895  0.97036722     1.90120
O300        O  0.32601837  0.21972098  0.98764618    -0.73770
O301        O  0.38955731  0.21977828  0.95456565    -0.73620
O302        O  0.37613371  0.21873628  0.99708028    -0.79280
O303        O  0.37928774  0.17188510  0.94902139    -0.77480
O304        O  0.33420895  0.17317301  0.97150952    -1.13610
O305        O  0.32603003  0.11844921  0.95491161    -0.72810
C306        C  0.30271232  0.11333321  0.94365505     0.97910
C307        C  0.30340790  0.20070970  0.99894365     0.94300
Al308      Al  0.35530974  0.21508662  0.97100113     1.55560
O309        O  0.28575390  0.11778572  0.98737678    -0.77430
C310        C  0.39510555  0.20085325  0.94509802     0.98470
C311        C  0.30809844  0.20544777  0.94221392     0.93350
O312        O  0.28919696  0.18226881  0.95313581    -0.82750
C313        C  0.42293661  0.21403796  0.90956436    -0.02260
C314        C  0.42347873  0.21334773  0.93186836     0.07420
C315        C  0.45164816  0.22275778  0.94223113    -0.02370
C316        C  0.47867112  0.23167180  0.93072150    -0.02380
C317        C  0.48075838  0.24004787  0.90857308     0.07550
C318        C  0.45116786  0.22692132  0.89782897    -0.02570
Br319      Br  0.44785111  0.22546401  0.86720283    -0.01120
Br320      Br  0.38371843  0.20002035  0.89535102    -0.01190
Br321      Br  0.50590230  0.22021580  0.94526168    -0.01150
Br322      Br  0.45341720  0.22215318  0.97280214    -0.01140
C323        C  0.24385302  0.03260786  0.92268645    -0.02260
C324        C  0.26033390  0.02703408  0.90612817     0.07420
C325        C  0.29248123  0.05218060  0.90311562    -0.02370
C326        C  0.30458853  0.08112504  0.91391014    -0.02380
C327        C  0.28774107  0.08516569  0.92983137     0.07550
C328        C  0.25772386  0.06069293  0.93442108    -0.02570
Br329      Br  0.23544892  0.06531991  0.95774994    -0.01120
Br330      Br  0.20067491  0.00420317  0.92944162    -0.01190
Br331      Br  0.34553280  0.11614679  0.90751448    -0.01150
Br332      Br  0.32518709  0.04883387  0.88895772    -0.01140
C333        C  0.28696454  0.26350364  0.92053949    -0.02260
C334        C  0.25949609  0.24391502  0.90802413     0.07420
C335        C  0.24932026  0.21097690  0.90769888    -0.02370
C336        C  0.26854131  0.20007309  0.91577414    -0.02380
C337        C  0.29534700  0.21974410  0.92758201     0.07550
C338        C  0.30520419  0.25167706  0.92921774    -0.02570
Br339      Br  0.34557852  0.28030560  0.94150220    -0.01120
Br340      Br  0.30201652  0.30745037  0.92573134    -0.01190
Br341      Br  0.25820172  0.15736224  0.91044812    -0.01150
Br342      Br  0.20652789  0.17764835  0.90368290    -0.01140
C343        C  0.04602212  0.24405055  0.84559998    -0.02260
C344        C  0.02674967  0.21205558  0.84256075     0.07420
C345        C  0.50509671  0.19406571  0.85819021    -0.02370
C346        C  0.50074249  0.20844217  0.87611346    -0.02380
C347        C  0.01959379  0.24204956  0.87919831     0.07550
C348        C  0.04574578  0.25754711  0.86494971    -0.02570
Br349      Br  0.08783574  0.28778059  0.87377890    -0.01120
Br350      Br  0.07627983  0.26858874  0.82412165    -0.01190
Br351      Br  0.47455218  0.17877952  0.89766515    -0.01150
Br352      Br  0.48351578  0.14886032  0.85569774    -0.01140
C353        C  0.16021673  0.21392849  0.86879045    -0.02260
C354        C  0.16497835  0.19948789  0.85110206     0.07420
C355        C  0.19237135  0.19784628  0.85168314    -0.02370
C356        C  0.21826485  0.21964808  0.86373118    -0.02380
C357        C  0.21406434  0.23473462  0.88168154     0.07550
C358        C  0.18189965  0.22444076  0.88563813    -0.02570
Br359      Br  0.16316134  0.21593876  0.91342679    -0.01120
Br360      Br  0.12686899  0.22292253  0.87123413    -0.01190
Br361      Br  0.25639290  0.22235822  0.85581400    -0.01150
Br362      Br  0.19180759  0.16092292  0.84104395    -0.01140
C363        C  0.49442978  0.31499438  0.86005378    -0.02260
C364        C  0.02251952  0.32948438  0.84861194     0.07420
C365        C  0.04785761  0.32809482  0.85710554    -0.02370
C366        C  0.04551854  0.31499099  0.87712513    -0.02380
C367        C  0.01612295  0.29172327  0.88518254     0.07550
C368        C  0.49115919  0.29677758  0.87854232    -0.02570
Br369      Br  0.45712893  0.28994127  0.89666682    -0.01120
Br370      Br  0.46123200  0.32214379  0.85129395    -0.01190
Br371      Br  0.07905964  0.34316179  0.89563758    -0.01150
Br372      Br  0.08741646  0.34671195  0.84268780    -0.01140
C373        C  0.17740488  0.49903215  0.86246304    -0.02260
C374        C  0.16787568  0.47467047  0.84788357     0.07420
C375        C  0.18214066  0.45663725  0.84832485    -0.02370
C376        C  0.20339775  0.46066234  0.86462055    -0.02380
C377        C  0.21615804  0.48746089  0.87880926     0.07550
C378        C  0.20369963  0.50813801  0.87563937    -0.02570
Br379      Br  0.22277795  0.55176980  0.88399046    -0.01120
Br380      Br  0.15356582  0.51987254  0.86456508    -0.01190
Br381      Br  0.21065428  0.42586135  0.86755983    -0.01150
Br382      Br  0.17268083  0.42633363  0.82608092    -0.01140
C383        C  0.31035688  0.31428195  0.85573848    -0.02260
C384        C  0.29451613  0.32787958  0.84587825     0.07420
C385        C  0.26706781  0.32295141  0.85517557    -0.02370
C386        C  0.26074126  0.31119180  0.87569311    -0.02380
C387        C  0.26694236  0.28735845  0.88169412     0.07550
C388        C  0.29578872  0.29193782  0.87238758    -0.02570
Br389      Br  0.31900844  0.27131468  0.87999230    -0.01120
Br390      Br  0.35272606  0.32807419  0.84730994    -0.01190
Br391      Br  0.27390083  0.34577857  0.89495029    -0.01150
Br392      Br  0.24190068  0.33853777  0.84284828    -0.01140
C393        C  0.28369246  0.99415464  0.84193699    -0.02260
C394        C  0.29848280  0.47709015  0.84612981     0.07420
C395        C  0.29960918  0.46800866  0.86705759    -0.02370
C396        C  0.28011229  0.46935483  0.88249547    -0.02380
C397        C  0.26727270  0.48977004  0.87936003     0.07550
C398        C  0.27320295  0.00460062  0.85872070    -0.02570
Br399      Br  0.26929275  0.04059903  0.85200760    -0.01120
Br400      Br  0.27516765  0.00140036  0.81308447    -0.01190
Br401      Br  0.26799956  0.43585805  0.90302786    -0.01150
Br402      Br  0.32791449  0.45333790  0.87466093    -0.01140
C403        C  0.41455501  0.05456610  0.77210031    -0.02260
C404        C  0.40370877  0.05226682  0.75028064     0.07420
C405        C  0.37654298  0.02263905  0.74509672    -0.02370
C406        C  0.35821364  0.00137038  0.76113155    -0.02380
C407        C  0.36676738  0.00801050  0.78250801     0.07550
C408        C  0.39460728  0.03482180  0.78798890    -0.02570
Br409      Br  0.40734709  0.04232076  0.81756649    -0.01120
Br410      Br  0.45797367  0.07284622  0.78104012    -0.01190
Br411      Br  0.31893908  0.96411324  0.75406377    -0.01150
Br412      Br  0.36094078  0.00966321  0.71677546    -0.01140
C413        C  0.48347168  0.12060743  0.74202596    -0.02260
C414        C  0.45032424  0.10800807  0.74480298     0.07420
C415        C  0.44305287  0.12325542  0.76142221    -0.02370
C416        C  0.46403592  0.13873315  0.77804922    -0.02380
C417        C  0.49587347  0.15007395  0.77534109     0.07550
C418        C  0.50538134  0.14430523  0.75579901    -0.02570
Br419      Br  0.04855049  0.17004411  0.74755922    -0.01120
Br420      Br  0.00282898  0.10814259  0.72097464    -0.01190
Br421      Br  0.44643825  0.13649656  0.80573397    -0.01150
Br422      Br  0.40591902  0.12572834  0.76395207    -0.01140
C423        C  0.40611714  0.13648222  0.69858891    -0.02260
C424        C  0.37412836  0.12505288  0.70078470     0.07420
C425        C  0.35675981  0.09924206  0.71419512    -0.02370
C426        C  0.37107455  0.08514067  0.72591512    -0.02380
C427        C  0.40346724  0.09433955  0.72238398     0.07550
C428        C  0.42033669  0.12115443  0.70849298    -0.02570
Br429      Br  0.46201746  0.13542713  0.69873422    -0.01120
Br430      Br  0.43050487  0.17127706  0.67938156    -0.01190
Br431      Br  0.34515665  0.05904881  0.74897237    -0.01150
Br432      Br  0.31268229  0.08407052  0.71730407    -0.01140
C433        C  0.15007528  0.03373592  0.75016377    -0.02260
C434        C  0.15012186  0.06202588  0.75562539     0.07420
C435        C  0.14702504  0.06566453  0.77803942    -0.02370
C436        C  0.13504923  0.03980091  0.79183922    -0.02380
C437        C  0.13334307  0.01202542  0.78566504     0.07550
C438        C  0.14210426  0.00945774  0.76517581    -0.02570
Br439      Br  0.14199642  0.47150732  0.75775835    -0.01120
Br440      Br  0.16054532  0.02565606  0.72283255    -0.01190
Br441      Br  0.12129635  0.04260349  0.81980132    -0.01150
Br442      Br  0.16868433  0.10494227  0.79334161    -0.01140
C443        C  0.12038186  0.10572707  0.75892505    -0.02260
C444        C  0.14988362  0.11409632  0.74949755     0.07420
C445        C  0.17398658  0.14649518  0.75272601    -0.02370
C446        C  0.16854268  0.16630442  0.76612344    -0.02380
C447        C  0.14157750  0.15371117  0.77860399     0.07550
C448        C  0.11888712  0.12224902  0.77596681    -0.02570
Br449      Br  0.08558904  0.09962592  0.79605117    -0.01120
Br450      Br  0.08023363  0.08562965  0.74480018    -0.01190
Br451      Br  0.19779645  0.21079606  0.76761134    -0.01150
Br452      Br  0.21384031  0.16712047  0.73891573    -0.01140
C453        C  0.18608339  0.09837754  0.70255388    -0.02260
C454        C  0.18494612  0.09771353  0.72541881     0.07420
C455        C  0.21459022  0.10643178  0.73536198    -0.02370
C456        C  0.24257637  0.12086786  0.72344577    -0.02380
C457        C  0.24216260  0.12841228  0.70205141     0.07550
C458        C  0.21357289  0.11873715  0.69210350    -0.02570
Br459      Br  0.21078064  0.13039428  0.66319743    -0.01120
Br460      Br  0.15743519  0.06516269  0.68355655    -0.01190
Br461      Br  0.28237353  0.13369694  0.73672681    -0.01150
Br462      Br  0.21992323  0.09890672  0.76459836    -0.01140
C463        C  0.44146702  0.35494494  0.77516159    -0.02260
C464        C  0.44094717  0.34924727  0.75255813     0.07420
C465        C  0.46439591  0.34196687  0.74602129    -0.02370
C466        C  0.48808769  0.34499745  0.76031439    -0.02380
C467        C  0.49104347  0.35799547  0.78037732     0.07550
C468        C  0.46861113  0.36471855  0.78710012    -0.02570
Br469      Br  0.47458906  0.38681503  0.81353648    -0.01120
Br470      Br  0.40623330  0.34097122  0.79411673    -0.01190
Br471      Br  0.01868216  0.33420406  0.75213190    -0.01150
Br472      Br  0.46854993  0.33118253  0.71742596    -0.01140
C473        C  0.35866052  0.33278543  0.74779316    -0.02260
C474        C  0.39189150  0.35464470  0.74866172     0.07420
C475        C  0.40176332  0.38232283  0.76127505    -0.02370
C476        C  0.38138785  0.38389631  0.77572747    -0.02380
C477        C  0.35004938  0.35991439  0.77662254     0.07550
C478        C  0.33864403  0.33485558  0.76248294    -0.02570
Br479      Br  0.29456067  0.30434035  0.76247996    -0.01120
Br480      Br  0.33689122  0.30663596  0.72345296    -0.01190
Br481      Br  0.39819164  0.41650098  0.79714005    -0.01150
Br482      Br  0.44354347  0.41848013  0.76097841    -0.01140
C483        C  0.40416199  0.31692918  0.70010451    -0.02260
C484        C  0.40183257  0.31890357  0.72284292     0.07420
C485        C  0.38623375  0.28866562  0.73350888    -0.02370
C486        C  0.37121776  0.26021090  0.72202265    -0.02380
C487        C  0.37712228  0.26013511  0.70057352     0.07550
C488        C  0.39701708  0.28852397  0.69058775    -0.02570
Br489      Br  0.41633715  0.28910548  0.66403722    -0.01120
Br490      Br  0.41255497  0.34816523  0.67878331    -0.01190
Br491      Br  0.34371852  0.22049632  0.73563224    -0.01150
Br492      Br  0.38143618  0.28285982  0.76345325    -0.01140
C493        C  0.36162073  0.45781083  0.37177738    -0.02260
C494        C  0.35574920  0.43427395  0.38780459     0.07420
C495        C  0.38031857  0.42657906  0.38995868    -0.02370
C496        C  0.40965355  0.44537362  0.38035623    -0.02380
C497        C  0.41409480  0.46761800  0.36490680     0.07550
C498        C  0.39006822  0.47374900  0.36064153    -0.02570
Br499      Br  0.39624045  0.50449991  0.33899566    -0.01120
Br500      Br  0.33319420  0.47225446  0.36485120    -0.01190
Br501      Br  0.44484174  0.44072609  0.38825132    -0.01150
Br502      Br  0.37562872  0.38702537  0.40000233    -0.01140
C503        C  0.08635086  0.13080011  0.39096022    -0.02260
C504        C  0.06907304  0.14575996  0.39610186     0.07420
C505        C  0.03563540  0.12496835  0.39250405    -0.02370
C506        C  0.02431408  0.09849698  0.37888854    -0.02380
C507        C  0.04489455  0.09127718  0.36865034     0.07550
C508        C  0.07640505  0.10830907  0.37472735    -0.02570
Br509      Br  0.10675698  0.09999274  0.36251189    -0.01120
Br510      Br  0.10784667  0.12114768  0.41276620    -0.01190
Br511      Br  0.47972350  0.07140274  0.37449552    -0.01150
Br512      Br  0.00188802  0.12889067  0.40473347    -0.01140
C513        C  0.07899187  0.46133492  0.39242461    -0.02260
C514        C  0.07199060  0.42925933  0.38917953     0.07420
C515        C  0.04997771  0.41295605  0.37211793    -0.02370
C516        C  0.03587052  0.42694617  0.36023597    -0.02380
C517        C  0.04088367  0.45655134  0.36543531     0.07550
C518        C  0.06152539  0.47305064  0.38197746    -0.02570
Br519      Br  0.06585373  0.01281897  0.38991508    -0.01120
Br520      Br  0.11595225  0.49456241  0.40629201    -0.01190
Br521      Br  0.00983309  0.40564897  0.33587617    -0.01150
Br522      Br  0.03506465  0.36991265  0.36476246    -0.01140
C523        C  0.14154910  0.20241622  0.45508891    -0.02260
C524        C  0.16561650  0.19894892  0.44707810     0.07420
C525        C  0.16712368  0.19494663  0.42525948    -0.02370
C526        C  0.14287423  0.19135535  0.41152031    -0.02380
C527        C  0.11558346  0.19057724  0.41979241     0.07550
C528        C  0.11899396  0.20193885  0.44143948    -0.02570
Br529      Br  0.10296275  0.22807050  0.45220971    -0.01120
Br530      Br  0.14110187  0.21107368  0.48502971    -0.01190
Br531      Br  0.14962563  0.18886489  0.38146027    -0.01150
Br532      Br  0.20188776  0.19238482  0.41448427    -0.01140
C533        C  0.33761023  0.37278744  0.44729770    -0.02260
C534        C  0.30922859  0.34406027  0.44906410     0.07420
C535        C  0.28601491  0.33872681  0.43402604    -0.02370
C536        C  0.29350311  0.35701634  0.41534888    -0.02380
C537        C  0.31940568  0.38897389  0.41529266     0.07550
C538        C  0.34001543  0.39646135  0.43339483    -0.02570
Br539      Br  0.37466342  0.43790474  0.43938503    -0.01120
Br540      Br  0.37542656  0.38000764  0.46116885    -0.01190
Br541      Br  0.26429707  0.33464791  0.39279078    -0.01150
Br542      Br  0.24227284  0.31104094  0.44062876    -0.01140
C543        C  0.01696064  0.34794047  0.43488752    -0.02260
C544        C  0.03222237  0.33803689  0.44889056     0.07420
C545        C  0.06432910  0.35102866  0.44743803    -0.02370
C546        C  0.08111799  0.37212750  0.43102060    -0.02380
C547        C  0.06694561  0.38503482  0.41700011     0.07550
C548        C  0.03393457  0.37296060  0.42048574    -0.02570
Br549      Br  0.00952099  0.39102183  0.41029213    -0.01120
Br550      Br  0.47190210  0.32669243  0.43603615    -0.01190
Br551      Br  0.12308747  0.37962153  0.42799976    -0.01150
Br552      Br  0.08561949  0.34012067  0.46877481    -0.01140
C553        C  0.02485511  0.20109352  0.42924882    -0.02260
C554        C  0.01943390  0.18623009  0.44907092     0.07420
C555        C  0.03279963  0.16772303  0.45362805    -0.02370
C556        C  0.05037216  0.16346029  0.43818802    -0.02380
C557        C  0.06121637  0.18337498  0.41958092     0.07550
C558        C  0.04896725  0.20401597  0.41637635    -0.02570
Br559      Br  0.06714879  0.24204177  0.39958941    -0.01120
Br560      Br  0.99912622  0.21788374  0.41958077    -0.01190
Br561      Br  0.06001581  0.13090958  0.44440703    -0.01150
Br562      Br  0.03163025  0.15160862  0.48187237    -0.01140
C563        C  0.29048456  0.43766013  0.44941466    -0.02260
C564        C  0.30903672  0.46997560  0.45156089     0.07420
C565        C  0.33246207  0.98695993  0.43685247    -0.02370
C566        C  0.33952746  0.47128839  0.42108307    -0.02380
C567        C  0.31814174  0.43816185  0.41671593     0.07550
C568        C  0.29185561  0.42298225  0.43101441    -0.02570
Br569      Br  0.25317480  0.38438974  0.42548661    -0.01120
Br570      Br  0.26262402  0.41299433  0.47215186    -0.01190
Br571      Br  0.38104303  0.49767696  0.40995513    -0.01150
Br572      Br  0.35524143  0.03223255  0.43891665    -0.01140
C573        C  0.14982527  0.44989360  0.41482932    -0.02260
C574        C  0.11634402  0.43666351  0.41700615     0.07420
C575        C  0.10732278  0.44196894  0.43752586    -0.02370
C576        C  0.12739332  0.44986402  0.45510888    -0.02380
C577        C  0.15962885  0.46417779  0.45220285     0.07550
C578        C  0.17045951  0.46772564  0.43139776    -0.02570
Br579      Br  0.21381143  0.49747341  0.42544784    -0.01120
Br580      Br  0.17184193  0.44049189  0.39393534    -0.01190
Br581      Br  0.10936222  0.43752704  0.48295204    -0.01150
Br582      Br  0.06806439  0.43940782  0.44315995    -0.01140
C583        C  0.07739040  0.03082720  0.70528227    -0.02260
C584        C  0.08028162  0.05017862  0.68810120     0.07420
C585        C  0.10302097  0.08189162  0.68851185    -0.02370
C586        C  0.12452320  0.09397432  0.70537697    -0.02380
C587        C  0.12533497  0.07353454  0.72167670     0.07550
C588        C  0.09858237  0.04228802  0.72243440    -0.02570
Br589      Br  0.08221459  0.01792148  0.74831754    -0.01120
Br590      Br  0.04151553  0.48932070  0.70648891    -0.01190
Br591      Br  0.15290713  0.13877758  0.70409336    -0.01150
Br592      Br  0.10718018  0.10817087  0.66429960    -0.01140
C593        C  0.46113164  0.03705114  0.70293222    -0.02260
C594        C  0.45445738  0.03891650  0.68177639     0.07420
C595        C  0.43173030  0.04627420  0.67659419    -0.02370
C596        C  0.42074720  0.05897476  0.69196990    -0.02380
C597        C  0.43073251  0.06177046  0.71423634     0.07550
C598        C  0.44620163  0.04418619  0.71892342    -0.02570
Br599      Br  0.44355338  0.02233692  0.74484270    -0.01120
Br600      Br  0.49051771  0.02356979  0.70985291    -0.01190
Br601      Br  0.38775784  0.06495575  0.68016681    -0.01150
Br602      Br  0.41305129  0.03441916  0.64856354    -0.01140
C603        C  0.43136287  0.41815884  0.69349568    -0.02260
C604        C  0.46047104  0.42541266  0.68513798     0.07420
C605        C  0.47691063  0.41300581  0.69577226    -0.02370
C606        C  0.46600312  0.39654367  0.71502356    -0.02380
C607        C  0.43368026  0.38156901  0.72049677     0.07550
C608        C  0.41727856  0.39560663  0.71004568    -0.02570
Br609      Br  0.37482756  0.38527724  0.71534403    -0.01120
Br610      Br  0.40889927  0.43740571  0.68140335    -0.01190
Br611      Br  0.49922713  0.41084882  0.73577331    -0.01150
Br612      Br  0.01395950  0.41603062  0.68408191    -0.01140
C613        C  0.21852480  0.09088937  0.58884080    -0.02260
C614        C  0.20946301  0.10850211  0.57557314     0.07420
C615        C  0.22785255  0.14191146  0.57966571    -0.02370
C616        C  0.24408526  0.15351990  0.59923476    -0.02380
C617        C  0.24699567  0.13340066  0.61395371     0.07550
C618        C  0.23122905  0.10120120  0.60906217    -0.02570
Br619      Br  0.22620411  0.06902483  0.62905409    -0.01120
Br620      Br  0.23173397  0.06317328  0.57750722    -0.01190
Br621      Br  0.26092407  0.19746721  0.60577847    -0.01150
Br622      Br  0.24435382  0.17427602  0.55789760    -0.01140
C623        C  0.17985967  0.10835571  0.51941512    -0.02260
C624        C  0.17937634  0.11358058  0.54181459     0.07420
C625        C  0.17754549  0.14078216  0.54697670    -0.02370
C626        C  0.18452654  0.16422272  0.53131426    -0.02380
C627        C  0.19446770  0.16137778  0.51108457     0.07550
C628        C  0.19245360  0.13340074  0.50535878    -0.02570
Br629      Br  0.20568511  0.12851498  0.47765498    -0.01120
Br630      Br  0.15439586  0.06852078  0.50526685    -0.01190
Br631      Br  0.18285346  0.20127179  0.53781960    -0.01150
Br632      Br  0.16754466  0.14808269  0.57515012    -0.01140
C633        C  0.21595149  0.05812800  0.51898002    -0.02260
C634        C  0.19469677  0.02610395  0.51876831     0.07420
C635        C  0.16921772  0.01337992  0.53234723    -0.02370
C636        C  0.16206619  0.03318561  0.54373019    -0.02380
C637        C  0.18520497  0.06597451  0.54635120     0.07550
C638        C  0.21321809  0.07722297  0.53396563    -0.02570
Br639      Br  0.24895574  0.11879281  0.53544445    -0.01120
Br640      Br  0.24743202  0.07630971  0.49713866    -0.01190
Br641      Br  0.11770719  0.01419559  0.54857138    -0.01150
Br642      Br  0.14325763  0.46840756  0.53450816    -0.01140
C643        C  0.09608722  0.06732166  0.58127235    -0.02260
C644        C  0.09511840  0.05233788  0.60032246     0.07420
C645        C  0.11958408  0.04729825  0.60542335    -0.02370
C646        C  0.14407058  0.05533227  0.59110311    -0.02380
C647        C  0.14823005  0.07420451  0.57247691     0.07550
C648        C  0.12097279  0.07648394  0.56691351    -0.02570
Br649      Br  0.11042700  0.08341446  0.53851265    -0.01120
Br650      Br  0.06171042  0.07380403  0.57456148    -0.01190
Br651      Br  0.16040249  0.02755188  0.59400552    -0.01150
Br652      Br  0.11908076  0.52826236  0.63245980    -0.01140
C653        C  0.37119981  0.08342964  0.60158177    -0.02260
C654        C  0.39124216  0.10403430  0.58516707     0.07420
C655        C  0.39785670  0.13589822  0.58619757    -0.02370
C656        C  0.37948845  0.14350556  0.59853573    -0.02380
C657        C  0.36107288  0.12353308  0.61464322     0.07550
C658        C  0.35727505  0.09365420  0.61643396    -0.02570
Br659      Br  0.33272293  0.06681207  0.63950053    -0.01120
Br660      Br  0.36314256  0.04159522  0.60574759    -0.01190
Br661      Br  0.37788107  0.18080627  0.59231235    -0.01150
Br662      Br  0.43580007  0.17264212  0.57676816    -0.01140
C663        C  0.40638385  0.12547303  0.53390899    -0.02260
C664        C  0.42282770  0.11778666  0.54959743     0.07420
C665        C  0.45652135  0.13564083  0.54743755    -0.02370
C666        C  0.47047909  0.15433586  0.52927060    -0.02380
C667        C  0.45219551  0.15499274  0.51251276     0.07550
C668        C  0.42005511  0.13919327  0.51446679    -0.02570
Br669      Br  0.39513749  0.14068990  0.49129494    -0.01120
Br670      Br  0.37494578  0.13574098  0.54079329    -0.01190
Br671      Br  0.01532737  0.18162482  0.52762895    -0.01150
Br672      Br  0.48633963  0.14294897  0.56989265    -0.01140
C673        C  0.35051517  0.06621901  0.54806134    -0.02260
C674        C  0.37486972  0.06207037  0.55640742     0.07420
C675        C  0.37048740  0.03155082  0.55142449    -0.02370
C676        C  0.35135137  0.01416325  0.53385791    -0.02380
C677        C  0.33532291  0.02568463  0.52178673     0.07550
C678        C  0.33620102  0.05284426  0.52878253    -0.02570
Br679      Br  0.31601104  0.07133693  0.51304934    -0.01120
Br680      Br  0.32330205  0.07265133  0.56623061    -0.01190
Br681      Br  0.34554244  0.47358538  0.52686640    -0.01150
Br682      Br  0.38177786  0.00750194  0.57007567    -0.01140
C683        C  0.44180673  0.06788760  0.56567714    -0.02260
C684        C  0.42816391  0.08210156  0.57815060     0.07420
C685        C  0.44079533  0.09060073  0.59954296    -0.02370
C686        C  0.46001415  0.07978441  0.60811555    -0.02380
C687        C  0.46474503  0.05809501  0.59727719     0.07550
C688        C  0.45796728  0.05426107  0.57556768    -0.02570
Br689      Br  0.47248412  0.03162900  0.55932144    -0.01120
Br690      Br  0.43895384  0.06589972  0.53498352    -0.01190
Br691      Br  0.48465885  0.09879685  0.63342526    -0.01150
Br692      Br  0.44079443  0.12293435  0.61688955    -0.01140
C693        C  0.38480923  0.30376772  0.59883713    -0.02260
C694        C  0.40316593  0.30138374  0.58214013     0.07420
C695        C  0.41399927  0.27945767  0.58657812    -0.02370
C696        C  0.40536744  0.26154685  0.60542454    -0.02380
C697        C  0.38021072  0.25779811  0.61738150     0.07550
C698        C  0.37208588  0.28116074  0.61530889    -0.02570
Br699      Br  0.34521510  0.28448573  0.63592173    -0.01120
Br700      Br  0.37191777  0.33473875  0.59895211    -0.01190
Br701      Br  0.43364236  0.24931373  0.61791892    -0.01150
Br702      Br  0.44386177  0.27327072  0.57073482    -0.01140
C703        C  0.39292994  0.33414642  0.52650368    -0.02260
C704        C  0.38590952  0.32073554  0.54757513     0.07420
C705        C  0.35272976  0.30093317  0.55167036    -0.02370
C706        C  0.33078304  0.30201219  0.53782512    -0.02380
C707        C  0.33891623  0.31150369  0.51677403     0.07550
C708        C  0.36983216  0.32383500  0.51096884    -0.02570
Br709      Br  0.38044947  0.32005035  0.48231904    -0.01120
Br710      Br  0.43220166  0.36878624  0.51718447    -0.01190
Br711      Br  0.28876609  0.28759077  0.54706734    -0.01150
Br712      Br  0.33255320  0.26450919  0.57007284    -0.01140
C713        C  0.46897242  0.34314162  0.54294404    -0.02260
C714        C  0.43618888  0.32086568  0.54682553     0.07420
C715        C  0.42214923  0.29365439  0.53317532    -0.02370
C716        C  0.43893130  0.29004537  0.51687634    -0.02380
C717        C  0.47115065  0.30966469  0.51572540     0.07550
C718        C  0.48624799  0.33535905  0.52925331    -0.02570
Br719      Br  0.03128735  0.36031857  0.52849765    -0.01120
Br720      Br  0.49217907  0.38712385  0.55091068    -0.01190
Br721      Br  0.41744290  0.25791702  0.49558435    -0.01150
Br722      Br  0.38097863  0.25772547  0.53729753    -0.01140
C723        C  0.45306703  0.36563108  0.59052286    -0.02260
C724        C  0.43130817  0.35947355  0.57337788     0.07420
C725        C  0.42499030  0.38465865  0.56902372    -0.02370
C726        C  0.44340111  0.41443313  0.57848372    -0.02380
C727        C  0.46168077  0.41809362  0.59652828     0.07550
C728        C  0.46412132  0.39227610  0.60331154    -0.02570
Br729      Br  0.98004157  0.39098536  0.63123177    -0.01120
Br730      Br  0.47331754  0.34175950  0.59615712    -0.01190
Br731      Br  0.44292684  0.45027302  0.56651313    -0.01150
Br732      Br  0.38854963  0.38118178  0.55474531    -0.01140
C733        C  0.13213682  0.40970028  0.34953653    -0.02260
C734        C  0.12962300  0.38029470  0.35140615     0.07420
C735        C  0.11277888  0.36057646  0.36810737    -0.02370
C736        C  0.09538464  0.36817868  0.38155933    -0.02380
C737        C  0.10154757  0.40017264  0.38270277     0.07550
C738        C  0.11876659  0.41993500  0.36491919    -0.02570
Br739      Br  0.12921719  0.46307731  0.36157923    -0.01120
Br740      Br  0.15576547  0.43684392  0.32620510    -0.01190
Br741      Br  0.05958182  0.33031796  0.39284474    -0.01150
Br742      Br  0.11453661  0.32284933  0.37310336    -0.01140
C743        C  0.12722498  0.23670182  0.38703678    -0.02260
C744        C  0.09773978  0.20701765  0.38607537     0.07420
C745        C  0.07996684  0.20301886  0.36688470    -0.02370
C746        C  0.09209638  0.22515970  0.35009202    -0.02380
C747        C  0.12244919  0.25060178  0.35098912     0.07550
C748        C  0.14051217  0.25520233  0.36892367    -0.02570
Br749      Br  0.18338799  0.28939748  0.36925121    -0.01120
Br750      Br  0.14877032  0.25983601  0.41220950    -0.01190
Br751      Br  0.06695211  0.22184001  0.32551716    -0.01150
Br752      Br  0.03646582  0.17356964  0.36369571    -0.01140
C753        C  0.27551926  0.37617216  0.34737964    -0.02260
C754        C  0.24830829  0.37718943  0.34978155     0.07420
C755        C  0.24609396  0.39411070  0.36650895    -0.02370
C756        C  0.27152309  0.41126450  0.38032659    -0.02380
C757        C  0.29689727  0.40474372  0.38147470     0.07550
C758        C  0.29881328  0.38813071  0.36328394    -0.02570
Br759      Br  0.32973056  0.37624903  0.35960869    -0.01120
Br760      Br  0.28023947  0.35739152  0.32202988    -0.01190
Br761      Br  0.27027156  0.44635813  0.39321145    -0.01150
Br762      Br  0.20732977  0.39322333  0.37073110    -0.01140
C763        C  0.02971356  0.43048909  0.24693351    -0.02260
C764        C  0.06219918  0.43920120  0.24517198     0.07420
C765        C  0.08304411  0.46243893  0.26036164    -0.02370
C766        C  0.07275180  0.47618896  0.27532991    -0.02380
C767        C  0.04119496  0.46654385  0.27697905     0.07550
C768        C  0.01989997  0.44375044  0.26281811    -0.02570
Br769      Br  0.47634125  0.43099561  0.26490398    -0.01120
Br770      Br  0.99627639  0.40224130  0.22827757    -0.01190
Br771      Br  0.10202850  0.00652372  0.29548859    -0.01150
Br772      Br  0.12593572  0.47392158  0.26423632    -0.01140
C773        C  0.09555154  0.38302704  0.27545662    -0.02260
C774        C  0.11460010  0.37413838  0.26542477     0.07420
C775        C  0.11644411  0.37543469  0.24345897    -0.02370
C776        C  0.10199629  0.38899833  0.23147263    -0.02380
C777        C  0.08805217  0.40504041  0.24158221     0.07550
C778        C  0.08129316  0.39702452  0.26400154    -0.02570
Br779      Br  0.04701524  0.39515715  0.28004464    -0.01120
Br780      Br  0.08612126  0.37231589  0.30508948    -0.01190
Br781      Br  0.10251164  0.38346713  0.20148995    -0.01150
Br782      Br  0.13933369  0.35831624  0.23010538    -0.01140
C783        C  0.04754866  0.13865070  0.26368782    -0.02260
C784        C  0.07210549  0.14376272  0.25066050     0.07420
C785        C  0.09282456  0.13633715  0.26176470    -0.02370
C786        C  0.07999796  0.11065564  0.27634698    -0.02380
C787        C  0.04763921  0.09524492  0.28131693     0.07550
C788        C  0.03109712  0.10987900  0.27413003    -0.02570
Br789      Br  0.48994593  0.09805018  0.28344119    -0.01120
Br790      Br  0.06021855  0.17194363  0.28388377    -0.01190
Br791      Br  0.10673474  0.09564396  0.28706979    -0.01150
Br792      Br  0.13732771  0.15881892  0.25869880    -0.01140
C793        C  0.99757400  0.15294073  0.20546344    -0.02260
C794        C  0.00053913  0.14459340  0.18485472     0.07420
C795        C  0.01995278  0.13255579  0.18144522    -0.02370
C796        C  0.03556369  0.12890070  0.19857241    -0.02380
C797        C  0.04263023  0.14772747  0.21709450     0.07550
C798        C  0.01863131  0.15509554  0.22173835    -0.02570
Br799      Br  0.01138089  0.16854678  0.24848860    -0.01120
Br800      Br  0.46502205  0.16243998  0.21061814    -0.01190
Br801      Br  0.03246131  0.08885915  0.19934995    -0.01150
Br802      Br  0.02174197  0.11637402  0.15408868    -0.01140
C803        C  0.12674130  0.21201576  0.23993683    -0.02260
C804        C  0.09516516  0.19766919  0.23307211     0.07420
C805        C  0.08180229  0.21720073  0.23562197    -0.02370
C806        C  0.09389650  0.24127054  0.25101961    -0.02380
C807        C  0.12178016  0.24930532  0.26208714     0.07550
C808        C  0.13819360  0.23435005  0.25616994    -0.02570
Br809      Br  0.17601594  0.24232192  0.27046564    -0.01120
Br810      Br  0.15865410  0.21376338  0.22183938    -0.01190
Br811      Br  0.07263246  0.26441743  0.25551032    -0.01150
Br812      Br  0.05881610  0.22399886  0.21324977    -0.01140
C813        C  0.40073133  0.46020714  0.24055719    -0.02260
C814        C  0.36823016  0.43954445  0.24608344     0.07420
C815        C  0.36236494  0.43806245  0.26863274    -0.02370
C816        C  0.38642228  0.44554259  0.28346116    -0.02380
C817        C  0.41752372  0.46344706  0.27754386     0.07550
C818        C  0.42455023  0.47232477  0.25632740    -0.02570
Br819      Br  0.46772082  0.50049200  0.24913739    -0.01120
Br820      Br  0.41566215  0.47360314  0.21195904    -0.01190
Br821      Br  0.37656625  0.43116471  0.31240472    -0.01150
Br822      Br  0.32603013  0.43555318  0.28178191    -0.01140
C823        C  0.35766713  0.46291134  0.17315500    -0.02260
C824        C  0.36453626  0.49289607  0.17868341     0.07420
C825        C  0.36084485  0.99922675  0.19989369    -0.02370
C826        C  0.35248232  0.47610939  0.21560418    -0.02380
C827        C  0.34552079  0.44489730  0.21043537     0.07550
C828        C  0.34494912  0.43858758  0.18812944    -0.02570
Br829      Br  0.31642578  0.39929602  0.17507559    -0.01120
Br830      Br  0.36482865  0.45488991  0.14439830    -0.01190
Br831      Br  0.34569820  0.98733146  0.24338656    -0.01150
Br832      Br  0.36787233  0.04030486  0.20715801    -0.01140
C833        C  0.25741555  0.40029914  0.24688416    -0.02260
C834        C  0.24994856  0.37570979  0.26143416     0.07420
C835        C  0.26949537  0.36266494  0.26211398    -0.02370
C836        C  0.29958281  0.37905483  0.25357449    -0.02380
C837        C  0.30800149  0.40417093  0.23863228     0.07550
C838        C  0.28391858  0.41153422  0.23376756    -0.02570
Br839      Br  0.28097471  0.43171678  0.20805577    -0.01120
Br840      Br  0.23044107  0.41776152  0.24335304    -0.01190
Br841      Br  0.32769928  0.36482991  0.26295114    -0.01150
Br842      Br  0.25448333  0.31991809  0.27145257    -0.01140
C843        C  0.38307800  0.38884017  0.19607981    -0.02260
C844        C  0.36026359  0.35940162  0.18825274     0.07420
C845        C  0.33090505  0.34477067  0.19805608    -0.02370
C846        C  0.32242561  0.36270400  0.21085157    -0.02380
C847        C  0.34635411  0.39357620  0.21823555     0.07550
C848        C  0.37700187  0.40029218  0.21430275    -0.02570
Br849      Br  0.40099598  0.39820368  0.23764427    -0.01120
Br850      Br  0.42360701  0.41418741  0.18377587    -0.01190
Br851      Br  0.27757353  0.34491781  0.21213174    -0.01150
Br852      Br  0.30243404  0.30047949  0.19393032    -0.01140
C853        C  0.00758722  0.35543355  0.19636550    -0.02260
C854        C  0.00871053  0.37096368  0.17747629     0.07420
C855        C  0.03348260  0.40071985  0.17358182    -0.02370
C856        C  0.05837333  0.41392020  0.18776355    -0.02380
C857        C  0.05428732  0.40367930  0.20974656     0.07550
C858        C  0.02974437  0.37143787  0.21268056    -0.02570
Br859      Br  0.02276653  0.34729112  0.23823834    -0.01120
Br860      Br  0.47377137  0.31280598  0.20012083    -0.01190
Br861      Br  0.09726401  0.43407252  0.17217678    -0.01150
Br862      Br  0.03478416  0.42231727  0.14750617    -0.01140
C863        C  0.13547227  0.46837856  0.21491858    -0.02260
C864        C  0.10248848  0.45746105  0.21712150     0.07420
C865        C  0.09197567  0.47672837  0.20641112    -0.02370
C866        C  0.11045254  0.49953391  0.19135927    -0.02380
C867        C  0.14139952  0.50770532  0.18845342     0.07550
C868        C  0.15432675  0.49370012  0.20105835    -0.02570
Br869      Br  0.19852310  0.00969416  0.19845082    -0.01120
Br870      Br  0.15853750  0.45200697  0.22961563    -0.01190
Br871      Br  0.09113469  0.51518162  0.17137506    -0.01150
Br872      Br  0.05064310  0.47105459  0.20799132    -0.01140
C873        C  0.10681955  0.13165141  0.21458333    -0.02260
C874        C  0.09616474  0.15373059  0.21183780     0.07420
C875        C  0.10291193  0.16881047  0.19133757    -0.02370
C876        C  0.11720299  0.16097497  0.17542216    -0.02380
C877        C  0.13319289  0.14533822  0.18073345     0.07550
C878        C  0.13001935  0.13332985  0.20135805    -0.02570
Br879      Br  0.15708663  0.11889284  0.21215459    -0.01120
Br880      Br  0.08561404  0.09145478  0.22914409    -0.01190
Br881      Br  0.11217411  0.16967807  0.14616589    -0.01150
Br882      Br  0.09364591  0.20059339  0.18313694    -0.01140
C883        C  0.19307291  0.41778602  0.92994650    -0.02260
C884        C  0.21296432  0.42215356  0.94697959     0.07420
C885        C  0.24141499  0.45008565  0.94852269    -0.02370
C886        C  0.25177139  0.47216224  0.93175026    -0.02380
C887        C  0.23179674  0.46838483  0.91369862     0.07550
C888        C  0.20021387  0.44198263  0.91529430    -0.02570
Br889      Br  0.16237662  0.43823648  0.90285920    -0.01120
Br890      Br  0.15521154  0.37793960  0.92647621    -0.01190
Br891      Br  0.29531584  0.50386123  0.93378926    -0.01150
Br892      Br  0.26638474  0.45751751  0.97391412    -0.01140
C893        C  0.08726044  0.27928452  0.93124569    -0.02260
C894        C  0.08924360  0.30222437  0.94510748     0.07420
C895        C  0.06560424  0.30956934  0.94513485    -0.02370
C896        C  0.04103409  0.29564028  0.93034654    -0.02380
C897        C  0.03958925  0.27384987  0.91477492     0.07550
C898        C  0.06163908  0.26336416  0.91754257    -0.02570
Br899      Br  0.05592646  0.22368444  0.90742348    -0.01120
Br900      Br  0.11973114  0.26876434  0.93095808    -0.01190
Br901      Br  0.00998958  0.30755536  0.93290987    -0.01150
Br902      Br  0.06597698  0.33788211  0.96636694    -0.01140
C903        C  0.20579750  0.30431873  0.92585530    -0.02260
C904        C  0.21162661  0.30085529  0.94701678     0.07420
C905        C  0.22618230  0.28403640  0.95215357    -0.02370
C906        C  0.22991381  0.26603801  0.93678087    -0.02380
C907        C  0.22828660  0.27180798  0.91440583     0.07550
C908        C  0.21248769  0.28912966  0.90968244    -0.02570
Br909      Br  0.19478231  0.29072761  0.88248932    -0.01120
Br910      Br  0.19256404  0.33397897  0.91914602    -0.01190
Br911      Br  0.22519021  0.22770040  0.94883694    -0.01150
Br912      Br  0.24178434  0.28604330  0.98050038    -0.01140
C913        C  0.28492908  0.04286871  0.03502534    -0.02260
C914        C  0.26510289  0.04379611  0.05134408     0.07420
C915        C  0.25382046  0.06542178  0.04685151    -0.02370
C916        C  0.26310011  0.08426973  0.02830710    -0.02380
C917        C  0.28790939  0.08762163  0.01607957     0.07550
C918        C  0.29741487  0.06567829  0.01869102    -0.02570
Br919      Br  0.32612791  0.06544882  0.99827695    -0.01120
Br920      Br  0.30032561  0.01401592  0.03497664    -0.01190
Br921      Br  0.23840406  0.10209447  0.01786793    -0.01150
Br922      Br  0.22261004  0.06990435  0.06244357    -0.01140
C923        C  0.27273139  0.00834574  0.10723811    -0.02260
C924        C  0.28080055  0.02362171  0.08660767     0.07420
C925        C  0.31393556  0.04423573  0.08350813    -0.02370
C926        C  0.33533736  0.04254103  0.09736669    -0.02380
C927        C  0.32654299  0.03123974  0.11809834     0.07550
C928        C  0.29511009  0.01656551  0.12334129    -0.02570
Br929      Br  0.28240104  0.50845208  0.15261854    -0.01120
Br930      Br  0.23336120  0.47199025  0.11426141    -0.01190
Br931      Br  0.37675459  0.05535628  0.08740895    -0.01150
Br932      Br  0.33463863  0.08121617  0.06573819    -0.01140
C933        C  0.24384140  0.04921135  0.10012547    -0.02260
C934        C  0.23041906  0.02234255  0.08613454     0.07420
C935        C  0.19775513  0.99927492  0.08994772    -0.02370
C936        C  0.18032606  0.00556831  0.10458188    -0.02380
C937        C  0.19522114  0.03068025  0.11853793     0.07550
C938        C  0.22711922  0.05139020  0.11699449    -0.02570
Br939      Br  0.24814746  0.08334418  0.13851203    -0.01120
Br940      Br  0.28411900  0.08643713  0.09604457    -0.01190
Br941      Br  0.13550459  0.97923394  0.10641299    -0.01150
Br942      Br  0.17500259  0.95590006  0.08060400    -0.01140
C943        C  0.23445484  0.43480627  0.04900922    -0.02260
C944        C  0.21106372  0.42845142  0.03405685     0.07420
C945        C  0.20259119  0.45098361  0.03014466    -0.02370
C946        C  0.21507023  0.47846284  0.04238248    -0.02380
C947        C  0.23797981  0.48537363  0.05898272     0.07550
C948        C  0.24784956  0.46230385  0.06151634    -0.02570
Br949      Br  0.28287104  0.46652157  0.07838310    -0.01120
Br950      Br  0.25062461  0.40659590  0.05069572    -0.01190
Br951      Br  0.19540177  0.50291637  0.03682213    -0.01150
Br952      Br  0.17552623  0.44560158  0.00617963    -0.01140
C953        C  0.43678585  0.24837349  0.02207923    -0.02260
C954        C  0.41272175  0.21699785  0.02107891     0.07420
C955        C  0.41266840  0.19593197  0.03581930    -0.02370
C956        C  0.43877259  0.20400493  0.04885789    -0.02380
C957        C  0.46347279  0.23674332  0.05184686     0.07550
C958        C  0.46211523  0.25802164  0.03656344    -0.02570
Br959      Br  0.49754262  0.29759468  0.02898282    -0.01120
Br960      Br  0.43591335  0.27820516  0.00231247    -0.01190
Br961      Br  0.44079309  0.16642568  0.05589827    -0.01150
Br962      Br  0.37534860  0.15537760  0.03858386    -0.01140
C963        C  0.99525172  0.30236426  0.07968759    -0.02260
C964        C  0.49318693  0.27353182  0.08591368     0.07420
C965        C  0.49000960  0.26849870  0.10877409    -0.02370
C966        C  0.47579782  0.28129088  0.12092242    -0.02380
C967        C  0.47207888  0.30552529  0.11287201     0.07550
C968        C  0.98089575  0.31537405  0.09187334    -0.02570
Br969      Br  0.97858076  0.35062748  0.08097819    -0.01120
Br970      Br  0.03470547  0.33574603  0.06940770    -0.01190
Br971      Br  0.45984274  0.26449097  0.14883718    -0.01150
Br972      Br  0.50829418  0.24923268  0.12638748    -0.01140
C973        C  0.00332013  0.20458752  0.08587528    -0.02260
C974        C  0.48398131  0.21849101  0.08334227     0.07420
C975        C  0.45560376  0.20470660  0.09581295    -0.02370
C976        C  0.44998118  0.18232928  0.11160237    -0.02380
C977        C  0.47124139  0.17218804  0.11522977     0.07550
C978        C  0.99683739  0.18206652  0.10194660    -0.02570
Br979      Br  0.02276282  0.16358384  0.10597020    -0.01120
Br980      Br  0.03746268  0.21178520  0.06784398    -0.01190
Br981      Br  0.41440627  0.16788137  0.13011180    -0.01150
Br982      Br  0.42385377  0.21678908  0.09317888    -0.01140
C983        C  0.05399949  0.28401737  0.06536304    -0.02260
C984        C  0.02389726  0.26174463  0.05646826     0.07420
C985        C  0.02503110  0.25236214  0.03496645    -0.02370
C986        C  0.05197616  0.26872051  0.02257724    -0.02380
C987        C  0.07992062  0.29177840  0.03142716     0.07550
C988        C  0.08110891  0.29921023  0.05273519    -0.02570
Br989      Br  0.12095834  0.33063089  0.06433446    -0.01120
Br990      Br  0.06237483  0.29269317  0.09493450    -0.01190
Br991      Br  0.05083561  0.25945005  0.99279887    -0.01150
Br992      Br  0.99418075  0.21370011  0.02196046    -0.01140
C993        C  0.28432910  0.25363388  0.03053940    -0.02260
C994        C  0.27057784  0.23589628  0.04972257     0.07420
C995        C  0.26572634  0.20445297  0.04955291    -0.02370
C996        C  0.28220107  0.19679459  0.03531702    -0.02380
C997        C  0.29216933  0.21277157  0.01605316     0.07550
C998        C  0.29104973  0.24025606  0.01328757    -0.02570
Br999      Br  0.29822360  0.25970577  0.98573156    -0.01120
Br1000     Br  0.29867702  0.29754257  0.02689721    -0.01190
Br1001     Br  0.29424239  0.16692557  0.04382918    -0.01150
Br1002     Br  0.23218865  0.16700967  0.06275600    -0.01140
C1003       C  0.28015989  0.28945720  0.09998335    -0.02260
C1004       C  0.28685505  0.27512582  0.08249439     0.07420
C1005       C  0.31851577  0.28159114  0.08209961    -0.02370
C1006       C  0.33704063  0.29325114  0.10045856    -0.02380
C1007       C  0.33227039  0.31220335  0.11464587     0.07550
C1008       C  0.30446765  0.31260846  0.11236097    -0.02570
Br1009     Br  0.30026191  0.34677122  0.12316063    -0.01120
Br1010     Br  0.23937607  0.28105447  0.10794090    -0.01190
Br1011     Br  0.36249214  0.27528471  0.10829200    -0.01150
Br1012     Br  0.33939890  0.27283304  0.05986238    -0.01140
C1013       C  0.20507460  0.21148815  0.08819977    -0.02260
C1014       C  0.23810072  0.22386909  0.08491224     0.07420
C1015       C  0.25263871  0.21263190  0.09992002    -0.02370
C1016       C  0.23676275  0.19499601  0.11779561    -0.02380
C1017       C  0.20460029  0.18072825  0.11857215     0.07550
C1018       C  0.18870228  0.18679435  0.10264757    -0.02570
Br1019     Br  0.14413401  0.15969821  0.09989097    -0.01120
Br1020     Br  0.17947087  0.22836698  0.07832950    -0.01190
Br1021     Br  0.25876848  0.18841493  0.14093100    -0.01150
Br1022     Br  0.29149351  0.21380150  0.09570104    -0.01140
C1023       C  0.21843082  0.24733814  0.03979966    -0.02260
C1024       C  0.24171935  0.26496956  0.05579158     0.07420
C1025       C  0.24816583  0.29665432  0.05877015    -0.02370
C1026       C  0.22747385  0.30554694  0.05114851    -0.02380
C1027       C  0.20865305  0.29071137  0.03376423     0.07550
C1028       C  0.20320321  0.26059261  0.02841935    -0.02570
Br1029     Br  0.17285788  0.23526270  0.00674706    -0.01120
Br1030     Br  0.20355160  0.20369483  0.03379190    -0.01190
Br1031     Br  0.22031728  0.33342403  0.06775600    -0.01150
Br1032     Br  0.28764235  0.33392694  0.06560816    -0.01140
C1033       C  0.25928472  0.74996990  0.06799375    -0.02900
C1034       C  0.49177226  0.74792633  0.06911280    -0.03080
C1035       C  0.25357028  0.51872144  0.07060622    -0.02900
O1036       O  0.21187525  0.83747953  0.01884060    -0.82210
C1037       C  0.11291613  0.81420263  0.96206071     0.97140
O1038       O  0.11721685  0.79495283  0.97223203    -0.71330
O1039       O  0.16996550  0.79799072  0.96646133    -0.74920
Al1040     Al  0.14804032  0.79829004  0.99082577     1.48980
C1041       C  0.19896130  0.81133890  0.96398110     0.92400
O1042       O  0.21598127  0.88434378  0.96896678    -0.81140
O1043       O  0.16897468  0.88377934  0.01738213    -0.74700
Al1044     Al  0.21141055  0.86025437  0.99386378     1.90120
O1045       O  0.17857609  0.89440400  0.97461542    -0.73770
O1046       O  0.11546610  0.83259586  0.00922170    -0.73620
O1047       O  0.12742893  0.84268972  0.96688864    -0.79280
O1048       O  0.12292688  0.79308358  0.01474119    -0.77480
O1049       O  0.16958470  0.83998444  0.99245513    -1.13610
O1050       O  0.17382611  0.79180190  0.00896144    -0.72810
C1051       C  0.19728125  0.80777556  0.02027526     0.97910
C1052       C  0.20206994  0.89899973  0.96441486     0.94300
Al1053     Al  0.14949757  0.86140081  0.99216363     1.55560
O1054       O  0.21722389  0.83290798  0.97613261    -0.77430
C1055       C  0.10808414  0.80697214  0.01817915     0.98470
C1056       C  0.19788724  0.90001391  0.02056806     0.93350
O1057       O  0.21606005  0.89350360  0.01126576    -0.82750
C1058       C  0.15141252  0.63970867  0.16463521     0.02720
C1059       C  0.14793454  0.60990056  0.16269360    -0.13430
C1060       C  0.16708651  0.60479298  0.14916345     0.00220
C1061       C  0.18603017  0.62858414  0.13488750    -0.11960
C1062       C  0.18729538  0.65737819  0.13516256     0.02710
C1063       C  0.17184302  0.66366913  0.15095002    -0.11380
H1064       H  0.13069817  0.59086875  0.17222133     0.08300
H1065       H  0.20041849  0.62540875  0.12369265     0.05830
H1066       H  0.17513970  0.68695423  0.15211391     0.05680
C1067       C  0.15877868  0.02921724  0.17074493     0.02720
C1068       C  0.16170375  0.55879650  0.16980506    -0.13430
C1069       C  0.16791960  0.57523677  0.15053388     0.00220
C1070       C  0.17564741  0.56351538  0.13295779    -0.11960
C1071       C  0.17804407  0.53666038  0.13483601     0.02710
C1072       C  0.16803430  0.01858202  0.15335601    -0.11380
H1073       H  0.15640449  0.56747603  0.18384004     0.08300
H1074       H  0.18133165  0.57574143  0.11793498     0.05830
H1075       H  0.16763460  0.99653520  0.15423619     0.05680
C1076       C  0.98510774  0.85554233  0.16085455     0.02720
C1077       C  0.45863284  0.85807720  0.16099603    -0.13430
C1078       C  0.43540855  0.84326043  0.14548934     0.00220
C1079       C  0.44048420  0.82720765  0.12893279    -0.11960
C1080       C  0.46763842  0.82537777  0.12839598     0.02710
C1081       C  0.99003072  0.84000229  0.14441742    -0.11380
H1082       H  0.45665567  0.87193366  0.17332443     0.08300
H1083       H  0.42335314  0.81524548  0.11677499     0.05830
H1084       H  0.01104192  0.83862394  0.14438674     0.05680
C1085       C  0.35495510  0.82891393  0.13238585     0.02720
C1086       C  0.34557653  0.83376810  0.15227834    -0.13430
C1087       C  0.36657545  0.84544976  0.16938142     0.00220
C1088       C  0.39473604  0.84590207  0.16754875    -0.11960
C1089       C  0.40540527  0.84287384  0.14762223     0.02710
C1090       C  0.38639922  0.83813042  0.12990913    -0.11380
H1091       H  0.32211217  0.82846503  0.15470147     0.08300
H1092       H  0.40836564  0.84955179  0.18177074     0.05830
H1093       H  0.39517356  0.83884059  0.11422637     0.05680
C1094       C  0.34128343  0.92027647  0.22831340    -0.02900
C1095       C  0.07634209  0.66069907  0.22839869    -0.02900
C1096       C  0.07661831  0.92570796  0.22849338    -0.02900
O1097       O  0.11697912  0.77984358  0.28926202    -0.82210
C1098       C  0.22358855  0.86367438  0.33336347     0.97140
O1099       O  0.20753963  0.83435492  0.33086708    -0.71330
O1100       O  0.15671120  0.77952668  0.32332370    -0.74920
Al1101     Al  0.18473675  0.81374904  0.30594605     1.48980
C1102       C  0.13408206  0.77495939  0.33442447     0.92400
O1103       O  0.12084695  0.84256763  0.32559160    -0.81140
O1104       O  0.15669641  0.88067458  0.28646645    -0.74700
Al1105     Al  0.12294147  0.81365604  0.30713646     1.90120
O1106       O  0.16839723  0.88240624  0.32864110    -0.73770
O1107       O  0.20696725  0.87692793  0.27843824    -0.73620
O1108       O  0.21974031  0.88210457  0.32149068    -0.79280
O1109       O  0.21807059  0.84200271  0.28883703    -0.77480
O1110       O  0.16440796  0.83477298  0.30568131    -1.13610
O1111       O  0.16409722  0.79141501  0.28093280    -0.72810
C1112       C  0.13500000  0.77492484  0.27818603     0.97910
C1113       C  0.14041748  0.86786469  0.33437136     0.94300
Al1114     Al  0.18600621  0.87673078  0.30381041     1.55560
O1115       O  0.12167290  0.79133911  0.33178642    -0.77430
C1116       C  0.22318344  0.86413065  0.27662038     0.98470
C1117       C  0.13075293  0.86171077  0.27833835     0.93350
O1118       O  0.11732514  0.83293344  0.28265568    -0.82750
C1119       C  0.47772026  0.63950653  0.16817310     0.02720
C1120       C  0.98540987  0.65994434  0.15086150    -0.13430
C1121       C  0.46599331  0.65045721  0.13290071     0.00220
C1122       C  0.44010893  0.62031343  0.13204776    -0.11960
C1123       C  0.43100278  0.60067537  0.14987999     0.02710
C1124       C  0.44989651  0.61078428  0.16802933    -0.11380
H1125       H  0.00658910  0.68259281  0.15115742     0.08300
H1126       H  0.42668496  0.61285391  0.11749657     0.05830
H1127       H  0.44387790  0.59610650  0.18199641     0.05680
C1128       C  0.37065176  0.51631513  0.16193554     0.02720
C1129       C  0.34734226  0.51122324  0.14714792    -0.13430
C1130       C  0.35058011  0.53579696  0.13412853     0.00220
C1131       C  0.37691709  0.56544365  0.13657138    -0.11960
C1132       C  0.40197204  0.56982957  0.14938087     0.02710
C1133       C  0.39874443  0.54472613  0.16180532    -0.11380
H1134       H  0.32629449  0.98847627  0.14626784     0.08300
H1135       H  0.37790309  0.58492748  0.12797720     0.05830
H1136       H  0.41737422  0.54719283  0.17205158     0.05680
C1137       C  0.41410936  0.82562959  0.56259246    -0.02900
C1138       C  0.40472275  0.59161465  0.56763991    -0.02900
C1139       C  0.18021225  0.59046257  0.55911711    -0.02900
O1140       O  0.05127554  0.50898804  0.61640806    -0.82210
C1141       C  0.46853678  0.52953284  0.66515499     0.97140
O1142       O  0.49247075  0.55017366  0.65580335    -0.71330
O1143       O  0.04283990  0.55039961  0.66515095    -0.74920
Al1144     Al  0.02341390  0.54866382  0.63907764     1.48980
C1145       C  0.05845650  0.53783382  0.67007005     0.92400
O1146       O  0.50321172  0.96404906  0.66436145    -0.81140
O1147       O  0.46325842  0.96387445  0.61038002    -0.74700
Al1148     Al  0.02558489  0.98731008  0.63996182     1.90120
O1149       O  0.45668084  0.94942232  0.65271935    -0.73770
O1150       O  0.45828813  0.51456349  0.61785001    -0.73620
O1151       O  0.45622190  0.50115731  0.66028087    -0.79280
O1152       O  0.50589541  0.55322628  0.61311861    -0.77480
O1153       O  0.50391942  0.50691904  0.63783641    -1.13610
O1154       O  0.05927239  0.55597607  0.62312525    -0.72810
C1155       C  0.06686920  0.53836835  0.61383340     0.97910
C1156       C  0.47418819  0.94724128  0.66640086     0.94300
Al1157     Al  0.46241902  0.98438606  0.63533203     1.55560
O1158       O  0.05634275  0.51553129  0.65941568    -0.77430
C1159       C  0.47715586  0.54049332  0.60925601     0.98470
C1160       C  0.47586486  0.94732734  0.60954080     0.93350
O1161       O  0.49928305  0.95407094  0.62109059    -0.82750
C1162       C  0.18179215  0.97658687  0.47056956     0.02720
C1163       C  0.20726406  0.97156336  0.47256664    -0.13430
C1164       C  0.23011502  0.98639357  0.48873982     0.00220
C1165       C  0.22416288  0.00257604  0.50445012    -0.11960
C1166       C  0.19833074  0.00633644  0.50318990     0.02710
C1167       C  0.17826227  0.99484542  0.48580102    -0.11380
H1168       H  0.20938104  0.95681368  0.46104817     0.08300
H1169       H  0.24043175  0.51457869  0.51722674     0.05830
H1170       H  0.16000855  0.00049269  0.48408870     0.05680
C1171       C  0.31317058  0.50715811  0.50437188     0.02720
C1172       C  0.28169641  0.49859392  0.50604620    -0.13430
C1173       C  0.26134562  0.48814388  0.48832962     0.00220
C1174       C  0.27241845  0.48199166  0.46969088    -0.11960
C1175       C  0.30209524  0.48528442  0.46897060     0.02710
C1176       C  0.32304164  0.49947348  0.48588361    -0.11380
H1177       H  0.27412406  0.50184905  0.52123292     0.08300
H1178       H  0.25788866  0.97340195  0.45566537     0.05830
H1179       H  0.34657556  0.50385556  0.48481538     0.05680
C1180       C  0.46736957  0.67743395  0.49494104     0.02720
C1181       C  0.48008182  0.66965390  0.47821105    -0.13430
C1182       C  0.50285592  0.69332262  0.46553999     0.00220
C1183       C  0.51101483  0.72459424  0.46905356    -0.11960
C1184       C  0.49433444  0.73220633  0.48323203     0.02710
C1185       C  0.47288461  0.70806271  0.49664461    -0.11380
H1186       H  0.47363696  0.64545907  0.47600621     0.08300
H1187       H  0.03027543  0.74279887  0.46029892     0.05830
H1188       H  0.46052608  0.71241448  0.50877891     0.05680
C1189       C  0.01495041  0.81512950  0.46603211     0.02720
C1190       C  0.00248828  0.82356033  0.48268223    -0.13430
C1191       C  0.98864977  0.80318070  0.49979824     0.00220
C1192       C  0.98864366  0.77490809  0.50075895    -0.11960
C1193       C  0.99896652  0.76471990  0.48358343     0.02710
C1194       C  0.01197864  0.78536009  0.46610783    -0.11380
H1195       H  0.00326184  0.84581763  0.48220555     0.08300
H1196       H  0.47915951  0.76065175  0.51475919     0.05830
H1197       H  0.01983457  0.77878193  0.45228341     0.05680
C1198       C  0.31520374  0.80430746  0.50001050     0.02720
C1199       C  0.29218067  0.77326369  0.49650340    -0.13430
C1200       C  0.27300032  0.76483516  0.47843812     0.00220
C1201       C  0.28251287  0.78736635  0.46202028    -0.11960
C1202       C  0.30338421  0.81957348  0.46586727     0.02710
C1203       C  0.31797179  0.82764614  0.48591531    -0.11380
H1204       H  0.29011361  0.75610176  0.50801813     0.08300
H1205       H  0.27317345  0.78004796  0.44628882     0.05830
H1206       H  0.33269238  0.85178417  0.49044168     0.05680
C1207       C  0.20328280  0.68554048  0.49458081     0.02720
C1208       C  0.23326184  0.71172644  0.49400248    -0.13430
C1209       C  0.24242316  0.73420807  0.47748516     0.00220
C1210       C  0.22006449  0.72884542  0.46153469    -0.11960
C1211       C  0.19028495  0.70205092  0.46183683     0.02710
C1212       C  0.18232435  0.68031110  0.47818467    -0.11380
H1213       H  0.24877061  0.71380568  0.50675951     0.08300
H1214       H  0.22464238  0.74585502  0.44926354     0.05830
H1215       H  0.15924847  0.65970492  0.47854698     0.05680
C1216       C  0.08901685  0.91305336  0.40112515    -0.02900
C1217       C  0.08577933  0.68178539  0.40516021    -0.02900
C1218       C  0.32273687  0.91665992  0.39995997    -0.02900
O1219       O  0.01127912  0.56198863  0.34001173    -0.82210
C1220       C  0.03020685  0.97874495  0.29447740     0.97140
O1221       O  0.04439908  0.00770090  0.29875130    -0.71330
O1222       O  0.04953885  0.56212884  0.30830103    -0.74920
Al1223     Al  0.04258371  0.52656137  0.32466292     1.48980
C1224       C  0.03279920  0.56749928  0.29597944     0.92400
O1225       O  0.44859234  0.50047280  0.30371924    -0.81140
O1226       O  0.44692621  0.96090526  0.34147326    -0.74700
Al1227     Al  0.48195289  0.52838443  0.32199904     1.90120
O1228       O  0.45599878  0.96127519  0.29874336    -0.73770
O1229       O  0.99905401  0.96009873  0.34871444    -0.73620
O1230       O  0.50719011  0.95961063  0.30545429    -0.79280
O1231       O  0.04674241  0.49629107  0.34134201    -0.77480
O1232       O  0.00109294  0.50621448  0.32364368    -1.13610
O1233       O  0.04453282  0.54802473  0.35047496    -0.72810
C1234       C  0.03308126  0.56565061  0.35233555     0.97910
C1235       C  0.44216308  0.97582958  0.29402018     0.94300
Al1236     Al  0.47924360  0.96430466  0.32368027     1.55560
O1237       O  0.00365706  0.55017951  0.29693488    -0.77430
C1238       C  0.02797097  0.97198919  0.35142819     0.98470
C1239       C  0.44130324  0.98011478  0.35053238     0.93350
O1240       O  0.45734607  0.00907809  0.34652808    -0.82750
C1241       C  0.41699712  0.85108613  0.73591068    -0.02900
C1242       C  0.15324860  0.58708387  0.73817385    -0.02900
C1243       C  0.42203708  0.57871349  0.73269936    -0.02900
O1244       O  0.28579645  0.62882184  0.68694458    -0.82210
C1245       C  0.36434871  0.73090972  0.63273681     0.97140
O1246       O  0.34110964  0.72680881  0.64298140    -0.71330
O1247       O  0.28814939  0.67471269  0.63507848    -0.74920
Al1248     Al  0.31106095  0.69404699  0.66045692     1.48980
C1249       C  0.27004934  0.64576954  0.63220855     0.92400
O1250       O  0.32218651  0.62446716  0.63552651    -0.81140
O1251       O  0.37171157  0.66819440  0.68558127    -0.74700
Al1252     Al  0.30557082  0.62903150  0.66125561     1.90120
O1253       O  0.37113741  0.65866761  0.64245946    -0.73770
O1254       O  0.37811364  0.72319389  0.67788913    -0.73620
O1255       O  0.37404507  0.71211196  0.63551802    -0.79280
O1256       O  0.33231983  0.71654814  0.68542711    -0.77480
O1257       O  0.32901182  0.67074636  0.66083421    -1.13610
O1258       O  0.27692186  0.66654385  0.67797488    -0.72810
C1259       C  0.27046003  0.64257988  0.68892555     0.97910
C1260       C  0.35069151  0.63621778  0.63163349     0.94300
Al1261     Al  0.37011554  0.68888891  0.66046424     1.55560
O1262       O  0.27222033  0.62674594  0.64449637    -0.77430
C1263       C  0.36154746  0.73119617  0.68783544     0.98470
C1264       C  0.35881265  0.63894120  0.68772408     0.93350
O1265       O  0.33402142  0.62136858  0.67762430    -0.82750
C1266       C  0.31309241  0.96899939  0.82884279     0.02720
C1267       C  0.33345150  0.49214060  0.81473031    -0.13430
C1268       C  0.34803185  0.48483711  0.79894313     0.00220
C1269       C  0.34478898  0.95517193  0.79859665    -0.11960
C1270       C  0.32348322  0.93105392  0.81186773     0.02710
C1271       C  0.30684968  0.93811922  0.82649566    -0.11380
H1272       H  0.33798000  0.51588188  0.81595675     0.08300
H1273       H  0.35885950  0.95128496  0.78755019     0.05830
H1274       H  0.28946115  0.91993943  0.83646986     0.05680
C1275       C  0.32952436  0.86227902  0.79228548     0.02720
C1276       C  0.32665193  0.88891476  0.79206728    -0.13430
C1277       C  0.31950092  0.89913768  0.81069389     0.00220
C1278       C  0.31112893  0.87961481  0.82862358    -0.11960
C1279       C  0.30776190  0.84970223  0.82758494     0.02710
C1280       C  0.31787427  0.84147277  0.80942690    -0.11380
H1281       H  0.33326399  0.90306141  0.77783579     0.08300
H1282       H  0.30702049  0.88736548  0.84354725     0.05830
H1283       H  0.31802920  0.81971229  0.80897878     0.05680
C1284       C  0.12642382  0.48725539  0.80158056     0.02720
C1285       C  0.14918693  0.49196586  0.81661138    -0.13430
C1286       C  0.14366025  0.96885578  0.83162495     0.00220
C1287       C  0.11543088  0.94020338  0.83090236    -0.11960
C1288       C  0.09194699  0.93464871  0.81578332     0.02710
C1289       C  0.09779400  0.95906821  0.80143521    -0.11380
H1290       H  0.17129063  0.51377760  0.81664649     0.08300
H1291       H  0.11263561  0.92227705  0.84200586     0.05830
H1292       H  0.08048727  0.95668773  0.78998967     0.05680
C1293       C  0.01630232  0.86348749  0.79547459     0.02720
C1294       C  0.50990648  0.84203462  0.81208670    -0.13430
C1295       C  0.02813080  0.85149812  0.83058071     0.00220
C1296       C  0.05254686  0.88273612  0.83217365    -0.11960
C1297       C  0.06228069  0.90326966  0.81465286     0.02710
C1298       C  0.04337165  0.89316515  0.79625204    -0.11380
H1299       H  0.48970101  0.81873017  0.81110530     0.08300
H1300       H  0.06433082  0.89041034  0.84726600     0.05830
H1301       H  0.04840991  0.90839782  0.78270799     0.05680
C1302       C  0.13584620  0.67203262  0.79461589     0.02720
C1303       C  0.10717274  0.67071299  0.79461883    -0.13430
C1304       C  0.09458195  0.67378718  0.81358246     0.00220
C1305       C  0.11190635  0.67863291  0.83238936    -0.11960
C1306       C  0.14365634  0.68742891  0.83187737     0.02710
C1307       C  0.15531874  0.68442161  0.81228135    -0.11380
H1308       H  0.09389980  0.66471009  0.78002577     0.08300
H1309       H  0.10013193  0.67490666  0.84718447     0.05830
H1310       H  0.17908792  0.69002799  0.81077859     0.05680
C1311       C  0.03405922  0.69647113  0.82553027     0.02720
C1312       C  0.51604069  0.68630304  0.80704907    -0.13430
C1313       C  0.51858808  0.66559148  0.79323500     0.00220
C1314       C  0.04215612  0.65839965  0.79723963    -0.11960
C1315       C  0.06443597  0.67358644  0.81340387     0.02710
C1316       C  0.05901432  0.69127390  0.82818232    -0.11380
H1317       H  0.49913148  0.69344945  0.80406636     0.08300
H1318       H  0.04348643  0.64137981  0.78741196     0.05830
H1319       H  0.07452741  0.70195931  0.84150557     0.05680
C1320       C  0.24199548  0.75905146  0.89653213    -0.02900
C1321       C  0.24405057  0.99341242  0.89470384    -0.02900
C1322       C  0.01346901  0.76127014  0.89703662    -0.02900
O1323       O  0.29080146  0.63047667  0.94530907    -0.82210
C1324       C  0.39018787  0.70482347  0.00285278     0.97140
O1325       O  0.38591823  0.68080863  0.99291380    -0.71330
O1326       O  0.33186654  0.62903368  0.99805110    -0.74920
Al1327     Al  0.35419649  0.65198925  0.97346245     1.48980
C1328       C  0.30268746  0.61284965  0.99974137     0.92400
O1329       O  0.29008097  0.67167686  0.99554391    -0.81140
O1330       O  0.33692630  0.71717226  0.94492853    -0.74700
Al1331     Al  0.29271901  0.65252986  0.97037520     1.90120
O1332       O  0.32601975  0.71972581  0.98764770    -0.73770
O1333       O  0.38956288  0.71978711  0.95457098    -0.73620
O1334       O  0.37613045  0.71873374  0.99708459    -0.79280
O1335       O  0.37929109  0.67189644  0.94901614    -0.77480
O1336       O  0.33421239  0.67317505  0.97151213    -1.13610
O1337       O  0.32603819  0.61845645  0.95490697    -0.72810
C1338       C  0.30271362  0.61333496  0.94365650     0.97910
C1339       C  0.30341357  0.70071675  0.99894847     0.94300
Al1340     Al  0.35531107  0.71508896  0.97100471     1.55560
O1341       O  0.28576424  0.61778950  0.98738743    -0.77430
C1342       C  0.39511103  0.70086587  0.94509829     0.98470
C1343       C  0.30809847  0.70544733  0.94221955     0.93350
O1344       O  0.28919797  0.68226813  0.95314224    -0.82750
C1345       C  0.42294494  0.71405014  0.90956522    -0.02260
C1346       C  0.42348588  0.71336483  0.93186940     0.07420
C1347       C  0.45165601  0.72278193  0.94223327    -0.02370
C1348       C  0.47867850  0.73169014  0.93072486    -0.02380
C1349       C  0.48076741  0.74006139  0.90857573     0.07550
C1350       C  0.45117719  0.72693401  0.89783066    -0.02570
Br1351     Br  0.44786154  0.72547460  0.86720445    -0.01120
Br1352     Br  0.38372674  0.70002598  0.89535025    -0.01190
Br1353     Br  0.50590277  0.72022745  0.94526745    -0.01150
Br1354     Br  0.45342755  0.72219413  0.97280421    -0.01140
C1355       C  0.24385218  0.53260983  0.92268641    -0.02260
C1356       C  0.26033163  0.52703583  0.90612708     0.07420
C1357       C  0.29247896  0.55218195  0.90311452    -0.02370
C1358       C  0.30458725  0.58112665  0.91390930    -0.02380
C1359       C  0.28774140  0.58516743  0.92983195     0.07550
C1360       C  0.25772450  0.56069423  0.93442218    -0.02570
Br1361     Br  0.23545297  0.56531890  0.95775441    -0.01120
Br1362     Br  0.20067441  0.50420595  0.92944237    -0.01190
Br1363     Br  0.34553031  0.61614839  0.90751131    -0.01150
Br1364     Br  0.32518300  0.54883277  0.88895624    -0.01140
C1365       C  0.28696767  0.76350790  0.92055047    -0.02260
C1366       C  0.25950085  0.74392280  0.90803265     0.07420
C1367       C  0.24932194  0.71098415  0.90770567    -0.02370
C1368       C  0.26853931  0.70007644  0.91578215    -0.02380
C1369       C  0.29534593  0.71974522  0.92759007     0.07550
C1370       C  0.30520533  0.75167852  0.92922751    -0.02570
Br1371     Br  0.34558245  0.78030525  0.94150927    -0.01120
Br1372     Br  0.30202172  0.80745412  0.92574641    -0.01190
Br1373     Br  0.25819436  0.65736397  0.91045655    -0.01150
Br1374     Br  0.20652860  0.67766025  0.90368531    -0.01140
C1375       C  0.04603624  0.74406077  0.84560657    -0.02260
C1376       C  0.02675952  0.71206671  0.84256591     0.07420
C1377       C  0.50510163  0.69407672  0.85819309    -0.02370
C1378       C  0.50074995  0.70845324  0.87611717    -0.02380
C1379       C  0.01960468  0.74206148  0.87920282     0.07550
C1380       C  0.04575900  0.75755742  0.86495598    -0.02570
Br1381     Br  0.08784821  0.78779023  0.87378729    -0.01120
Br1382     Br  0.07629922  0.76859702  0.82413046    -0.01190
Br1383     Br  0.47455939  0.67879130  0.89766917    -0.01150
Br1384     Br  0.48351260  0.64887146  0.85569778    -0.01140
C1385       C  0.16023310  0.71395669  0.86878736    -0.02260
C1386       C  0.16499207  0.69950852  0.85110249     0.07420
C1387       C  0.19238366  0.69786418  0.85168608    -0.02370
C1388       C  0.21827676  0.71966488  0.86373541    -0.02380
C1389       C  0.21407604  0.73475241  0.88168534     0.07550
C1390       C  0.18191176  0.72446505  0.88563748    -0.02570
Br1391     Br  0.16316483  0.71596024  0.91342319    -0.01120
Br1392     Br  0.12689526  0.72296682  0.87122178    -0.01190
Br1393     Br  0.25640375  0.72237176  0.85581994    -0.01150
Br1394     Br  0.19181860  0.66093915  0.84104877    -0.01140
C1395       C  0.49444223  0.81499771  0.86005050    -0.02260
C1396       C  0.02253334  0.82948849  0.84860874     0.07420
C1397       C  0.04787204  0.82810308  0.85710600    -0.02370
C1398       C  0.04553187  0.81500276  0.87712710    -0.02380
C1399       C  0.01613603  0.79173601  0.88518445     0.07550
C1400       C  0.49117192  0.79678637  0.87854188    -0.02570
Br1401     Br  0.45714417  0.78995739  0.89666631    -0.01120
Br1402     Br  0.46124237  0.82214078  0.85128543    -0.01190
Br1403     Br  0.07907174  0.84317515  0.89563966    -0.01150
Br1404     Br  0.08743263  0.84671982  0.84269051    -0.01140
C1405       C  0.17741127  0.99903155  0.86246116    -0.02260
C1406       C  0.16788531  0.97467201  0.84788042     0.07420
C1407       C  0.18215032  0.95663877  0.84832275    -0.02370
C1408       C  0.20340449  0.96066216  0.86462021    -0.02380
C1409       C  0.21616245  0.98745931  0.87880991     0.07550
C1410       C  0.20370407  0.00813643  0.87563925    -0.02570
Br1411     Br  0.22278206  0.05176843  0.88398971    -0.01120
Br1412     Br  0.15357097  0.01987078  0.86456218    -0.01190
Br1413     Br  0.21066158  0.92586179  0.86755953    -0.01150
Br1414     Br  0.17269500  0.92633784  0.82607767    -0.01140
C1415       C  0.31037946  0.81428947  0.85575272    -0.02260
C1416       C  0.29454770  0.82789666  0.84589316     0.07420
C1417       C  0.26710184  0.82297719  0.85518972    -0.02370
C1418       C  0.26076748  0.81121182  0.87570569    -0.02380
C1419       C  0.26695974  0.78737188  0.88170541     0.07550
C1420       C  0.29580467  0.79194477  0.87240039    -0.02570
Br1421     Br  0.31901580  0.77131288  0.88000611    -0.01120
Br1422     Br  0.35274630  0.82806929  0.84732459    -0.01190
Br1423     Br  0.27392177  0.84579282  0.89496740    -0.01150
Br1424     Br  0.24194906  0.83858192  0.84286423    -0.01140
C1425       C  0.28367011  0.49415026  0.84192791    -0.02260
C1426       C  0.29851481  0.97710574  0.84614601     0.07420
C1427       C  0.29963245  0.96802317  0.86707478    -0.02370
C1428       C  0.28012022  0.96935702  0.88250502    -0.02380
C1429       C  0.26727759  0.98976854  0.87936483     0.07550
C1430       C  0.27319458  0.50460292  0.85871628    -0.02570
Br1431     Br  0.26929222  0.54060748  0.85200900    -0.01120
Br1432     Br  0.27513896  0.50140259  0.81307858    -0.01190
Br1433     Br  0.26799177  0.93584691  0.90302919    -0.01150
Br1434     Br  0.32794489  0.95336648  0.87469038    -0.01140
C1435       C  0.41453478  0.55455708  0.77210184    -0.02260
C1436       C  0.40370035  0.55227170  0.75027939     0.07420
C1437       C  0.37653000  0.52265145  0.74508635    -0.02370
C1438       C  0.35818867  0.50137465  0.76111384    -0.02380
C1439       C  0.36673660  0.50799394  0.78249207     0.07550
C1440       C  0.39458068  0.53479424  0.78798267    -0.02570
Br1441     Br  0.40731135  0.54225120  0.81756373    -0.01120
Br1442     Br  0.45794929  0.57285743  0.78105726    -0.01190
Br1443     Br  0.31890368  0.46413697  0.75403483    -0.01150
Br1444     Br  0.36093018  0.50970099  0.71676189    -0.01140
C1445       C  0.48347374  0.62060985  0.74203303    -0.02260
C1446       C  0.45032654  0.60801540  0.74480820     0.07420
C1447       C  0.44305822  0.62327017  0.76142406    -0.02370
C1448       C  0.46403989  0.63874728  0.77805183    -0.02380
C1449       C  0.49587669  0.65007940  0.77534720     0.07550
C1450       C  0.50538449  0.64430604  0.75580667    -0.02570
Br1451     Br  0.04855532  0.67004465  0.74756866    -0.01120
Br1452     Br  0.00283154  0.60815188  0.72097899    -0.01190
Br1453     Br  0.44643703  0.63652096  0.80573285    -0.01150
Br1454     Br  0.40594432  0.62578280  0.76393877    -0.01140
C1455       C  0.40612033  0.63649765  0.69859641    -0.02260
C1456       C  0.37412961  0.62506258  0.70078847     0.07420
C1457       C  0.35676154  0.59924986  0.71419773    -0.02370
C1458       C  0.37107893  0.58515431  0.72592086    -0.02380
C1459       C  0.40347076  0.59435215  0.72238804     0.07550
C1460       C  0.42034117  0.62117082  0.70850038    -0.02570
Br1461     Br  0.46202486  0.63544922  0.69874551    -0.01120
Br1462     Br  0.43050953  0.67129765  0.67939318    -0.01190
Br1463     Br  0.34517356  0.55908825  0.74899190    -0.01150
Br1464     Br  0.31268174  0.58406873  0.71730317    -0.01140
C1465       C  0.15006617  0.53373153  0.75016763    -0.02260
C1466       C  0.15011777  0.56202382  0.75562940     0.07420
C1467       C  0.14702339  0.56566436  0.77804338    -0.02370
C1468       C  0.13504503  0.53980108  0.79184345    -0.02380
C1469       C  0.13333335  0.51202301  0.78566914     0.07550
C1470       C  0.14209231  0.50945295  0.76517971    -0.02570
Br1471     Br  0.14201506  0.97151542  0.75775467    -0.01120
Br1472     Br  0.16053345  0.52564968  0.72283614    -0.01190
Br1473     Br  0.12129541  0.54260750  0.81980575    -0.01150
Br1474     Br  0.16868790  0.60494308  0.79334421    -0.01140
C1475       C  0.12037989  0.60572520  0.75892904    -0.02260
C1476       C  0.14988105  0.61409459  0.74950102     0.07420
C1477       C  0.17398371  0.64649348  0.75272878    -0.02370
C1478       C  0.16854026  0.66630242  0.76612681    -0.02380
C1479       C  0.14157664  0.65370831  0.77860919     0.07550
C1480       C  0.11888641  0.62224585  0.77597203    -0.02570
Br1481     Br  0.08558836  0.59962133  0.79605590    -0.01120
Br1482     Br  0.08023449  0.58563973  0.74480049    -0.01190
Br1483     Br  0.19779176  0.71079475  0.76761196    -0.01150
Br1484     Br  0.21383617  0.66711843  0.73891696    -0.01140
C1485       C  0.18608123  0.59837819  0.70255841    -0.02260
C1486       C  0.18494319  0.59771089  0.72542313     0.07420
C1487       C  0.21458716  0.60642822  0.73536621    -0.02370
C1488       C  0.24257377  0.62086735  0.72345042    -0.02380
C1489       C  0.24216033  0.62841497  0.70205671     0.07550
C1490       C  0.21357057  0.61874063  0.69210901    -0.02570
Br1491     Br  0.21077752  0.63040264  0.66320453    -0.01120
Br1492     Br  0.15743689  0.56516316  0.68355997    -0.01190
Br1493     Br  0.28237107  0.63369650  0.73673136    -0.01150
Br1494     Br  0.21991918  0.59889437  0.76460092    -0.01140
C1495       C  0.44148757  0.85495162  0.77515977    -0.02260
C1496       C  0.44096330  0.84925262  0.75255620     0.07420
C1497       C  0.46440740  0.84196675  0.74601751    -0.02370
C1498       C  0.48809930  0.84499351  0.76030917    -0.02380
C1499       C  0.49106016  0.85799366  0.78037204     0.07550
C1500       C  0.46863292  0.86472325  0.78709599    -0.02570
Br1501     Br  0.47461810  0.88682424  0.81353132    -0.01120
Br1502     Br  0.40625790  0.84097849  0.79411860    -0.01190
Br1503     Br  0.01868588  0.83419483  0.75212351    -0.01150
Br1504     Br  0.46855482  0.83117991  0.71742151    -0.01140
C1505       C  0.35868169  0.83280350  0.74780218    -0.02260
C1506       C  0.39191356  0.85465916  0.74866616     0.07420
C1507       C  0.40179327  0.88233849  0.76127979    -0.02370
C1508       C  0.38142529  0.88391494  0.77573741    -0.02380
C1509       C  0.35008583  0.85993595  0.77663677     0.07550
C1510       C  0.33867203  0.83487790  0.76249593    -0.02570
Br1511     Br  0.29458659  0.80437051  0.76249664    -0.01120
Br1512     Br  0.33690292  0.80665329  0.72346431    -0.01190
Br1513     Br  0.39824213  0.91651787  0.79715126    -0.01150
Br1514     Br  0.44357502  0.91849314  0.76097677    -0.01140
C1515       C  0.40416708  0.81693646  0.70010483    -0.02260
C1516       C  0.40184153  0.81891196  0.72284359     0.07420
C1517       C  0.38624121  0.78867421  0.73350982    -0.02370
C1518       C  0.37122068  0.76021934  0.72202397    -0.02380
C1519       C  0.37712235  0.76014229  0.70057452     0.07550
C1520       C  0.39701771  0.78853012  0.69058781    -0.02570
Br1521     Br  0.41633218  0.78910861  0.66403527    -0.01120
Br1522     Br  0.41256130  0.84817261  0.67878346    -0.01190
Br1523     Br  0.34371958  0.72050588  0.73563451    -0.01150
Br1524     Br  0.38144840  0.78286855  0.76345430    -0.01140
C1525       C  0.36150718  0.95778336  0.37174562    -0.02260
C1526       C  0.35566128  0.93425824  0.38777705     0.07420
C1527       C  0.38024197  0.92657873  0.38992031    -0.02370
C1528       C  0.40956743  0.94538299  0.38030854    -0.02380
C1529       C  0.41398043  0.96760704  0.36485033     0.07550
C1530       C  0.38993393  0.97370768  0.36058525    -0.02570
Br1531     Br  0.39604736  0.00438847  0.33890085    -0.01120
Br1532     Br  0.33307834  0.97223517  0.36484896    -0.01190
Br1533     Br  0.44477714  0.94076965  0.38819841    -0.01150
Br1534     Br  0.37557999  0.88703578  0.39996101    -0.01140
C1535       C  0.08639737  0.63082071  0.39100150    -0.02260
C1536       C  0.06910247  0.64577072  0.39612433     0.07420
C1537       C  0.03567181  0.62496609  0.39251787    -0.02370
C1538       C  0.02437409  0.59850093  0.37889987    -0.02380
C1539       C  0.04497309  0.59128770  0.36867917     0.07550
C1540       C  0.07647579  0.60832612  0.37477259    -0.02570
Br1541     Br  0.10684832  0.60001637  0.36258433    -0.01120
Br1542     Br  0.10789155  0.62119182  0.41282285    -0.01190
Br1543     Br  0.47979147  0.57139002  0.37450226    -0.01150
Br1544     Br  0.00190583  0.62885316  0.40475147    -0.01140
C1545       C  0.07886274  0.96133069  0.39238510    -0.02260
C1546       C  0.07186632  0.92925525  0.38914974     0.07420
C1547       C  0.04983809  0.91293564  0.37209805    -0.02370
C1548       C  0.03572435  0.92691613  0.36021066    -0.02380
C1549       C  0.04074326  0.95652799  0.36539633     0.07550
C1550       C  0.06138831  0.97303644  0.38193560    -0.02570
Br1551     Br  0.06599849  0.51283465  0.38996250    -0.01120
Br1552     Br  0.11582901  0.99456962  0.40623793    -0.01190
Br1553     Br  0.00967458  0.90559974  0.33585941    -0.01150
Br1554     Br  0.03492188  0.86988654  0.36475977    -0.01140
C1555       C  0.14154683  0.70243793  0.45510265    -0.02260
C1556       C  0.16561294  0.69896757  0.44709278     0.07420
C1557       C  0.16712994  0.69497957  0.42527311    -0.02370
C1558       C  0.14288506  0.69139433  0.41153258    -0.02380
C1559       C  0.11559054  0.69060699  0.41980505     0.07550
C1560       C  0.11899515  0.70196436  0.44145194    -0.02570
Br1561     Br  0.10295477  0.72808858  0.45222009    -0.01120
Br1562     Br  0.14109568  0.71109207  0.48504319    -0.01190
Br1563     Br  0.14963930  0.68890869  0.38147252    -0.01150
Br1564     Br  0.20189552  0.69241981  0.41449804    -0.01140
C1565       C  0.33758243  0.87277589  0.44727098    -0.02260
C1566       C  0.30920525  0.84404705  0.44904632     0.07420
C1567       C  0.28598015  0.83870598  0.43401531    -0.02370
C1568       C  0.29345090  0.85699479  0.41533791    -0.02380
C1569       C  0.31934884  0.88895498  0.41527612     0.07550
C1570       C  0.33997290  0.89644658  0.43337068    -0.02570
Br1571     Br  0.37461901  0.93789303  0.43935485    -0.01120
Br1572     Br  0.37540994  0.88000050  0.46112641    -0.01190
Br1573     Br  0.26422576  0.83462607  0.39278881    -0.01150
Br1574     Br  0.24224442  0.81101288  0.44063067    -0.01140
C1575       C  0.01689722  0.84794792  0.43488147    -0.02260
C1576       C  0.03217443  0.83804709  0.44887337     0.07420
C1577       C  0.06428195  0.85105202  0.44741055    -0.02370
C1578       C  0.08105546  0.87215701  0.43099166    -0.02380
C1579       C  0.06686432  0.88505369  0.41697855     0.07550
C1580       C  0.03385511  0.87297101  0.42047801    -0.02570
Br1581     Br  0.00942581  0.89102252  0.41029867    -0.01120
Br1582     Br  0.47183869  0.82669265  0.43604519    -0.01190
Br1583     Br  0.12303087  0.87967145  0.42795669    -0.01150
Br1584     Br  0.08559509  0.84015405  0.46873565    -0.01140
C1585       C  0.02483128  0.70107888  0.42924892    -0.02260
C1586       C  0.01941816  0.68622923  0.44907507     0.07420
C1587       C  0.03279377  0.66773286  0.45363922    -0.02370
C1588       C  0.05037272  0.66347206  0.43820306    -0.02380
C1589       C  0.06121179  0.68337931  0.41959239     0.07550
C1590       C  0.04895013  0.70400872  0.41638098    -0.02570
Br1591     Br  0.06712498  0.74203659  0.39959602    -0.01120
Br1592     Br  0.99908633  0.71784572  0.41957161    -0.01190
Br1593     Br  0.06002840  0.63093291  0.44443169    -0.01150
Br1594     Br  0.03162631  0.65162888  0.48188674    -0.01140
C1595       C  0.29044189  0.93764560  0.44941658    -0.02260
C1596       C  0.30898745  0.96996301  0.45155289     0.07420
C1597       C  0.33251896  0.48697616  0.43686588    -0.02370
C1598       C  0.33946377  0.97126818  0.42106895    -0.02380
C1599       C  0.31807770  0.93813974  0.41670884     0.07550
C1600       C  0.29180492  0.92296007  0.43101798    -0.02570
Br1601     Br  0.25312548  0.88436012  0.42550378    -0.01120
Br1602     Br  0.26259685  0.91299061  0.47216339    -0.01190
Br1603     Br  0.38097141  0.99765490  0.40992719    -0.01150
Br1604     Br  0.35529932  0.53224834  0.43893642    -0.01140
C1605       C  0.14973654  0.94992765  0.41477858    -0.02260
C1606       C  0.11625508  0.93669219  0.41696444     0.07420
C1607       C  0.10724777  0.94199944  0.43748843    -0.02370
C1608       C  0.12732578  0.94988708  0.45506799    -0.02380
C1609       C  0.15956105  0.96419357  0.45215760     0.07550
C1610       C  0.17038139  0.96774559  0.43134891    -0.02570
Br1611     Br  0.21373454  0.99748623  0.42539710    -0.01120
Br1612     Br  0.17174221  0.94056164  0.39385587    -0.01190
Br1613     Br  0.10930187  0.93754428  0.48291274    -0.01150
Br1614     Br  0.06799409  0.93944222  0.44313315    -0.01140
C1615       C  0.07738643  0.53082180  0.70528885    -0.02260
C1616       C  0.08027991  0.55017004  0.68810541     0.07420
C1617       C  0.10301862  0.58188339  0.68851449    -0.02370
C1618       C  0.12451941  0.59396888  0.70538013    -0.02380
C1619       C  0.12533133  0.57353122  0.72168122     0.07550
C1620       C  0.09857751  0.54228569  0.72244127    -0.02570
Br1621     Br  0.08220693  0.51792714  0.74832705    -0.01120
Br1622     Br  0.04152208  0.98932429  0.70647958    -0.01190
Br1623     Br  0.15289964  0.63877282  0.70409632    -0.01150
Br1624     Br  0.10717887  0.60815944  0.66430006    -0.01140
C1625       C  0.46113014  0.53705311  0.70293803    -0.02260
C1626       C  0.45445422  0.53891288  0.68178195     0.07420
C1627       C  0.43173022  0.54627413  0.67659852    -0.02370
C1628       C  0.42075662  0.55898869  0.69197113    -0.02380
C1629       C  0.43073683  0.56178203  0.71423908     0.07550
C1630       C  0.44620380  0.54419571  0.71892806    -0.02570
Br1631     Br  0.44357680  0.52237221  0.74485484    -0.01120
Br1632     Br  0.49051465  0.52356983  0.70985997    -0.01190
Br1633     Br  0.38778993  0.56499814  0.68015874    -0.01150
Br1634     Br  0.41304180  0.53440381  0.64857119    -0.01140
C1635       C  0.43137339  0.91816470  0.69349472    -0.02260
C1636       C  0.46048029  0.92541809  0.68513492     0.07420
C1637       C  0.47692158  0.91301178  0.69576775    -0.02370
C1638       C  0.46601672  0.89654933  0.71501941    -0.02380
C1639       C  0.43369510  0.88157707  0.72049605     0.07550
C1640       C  0.41729280  0.89561569  0.71004702    -0.02570
Br1641     Br  0.37484576  0.88529354  0.71535279    -0.01120
Br1642     Br  0.40890501  0.93740592  0.68140108    -0.01190
Br1643     Br  0.49924519  0.91084667  0.73576518    -0.01150
Br1644     Br  0.01396610  0.91603297  0.68407114    -0.01140
C1645       C  0.21852027  0.59089295  0.58885153    -0.02260
C1646       C  0.20945951  0.60850391  0.57558119     0.07420
C1647       C  0.22784412  0.64191372  0.57967462    -0.02370
C1648       C  0.24407575  0.65352297  0.59924399    -0.02380
C1649       C  0.24698670  0.63340458  0.61396321     0.07550
C1650       C  0.23121834  0.60120497  0.60907374    -0.02570
Br1651     Br  0.22618634  0.56902949  0.62906888    -0.01120
Br1652     Br  0.23174541  0.56318741  0.57752248    -0.01190
Br1653     Br  0.26091031  0.69746927  0.60578931    -0.01150
Br1654     Br  0.24433772  0.67428203  0.55790900    -0.01140
C1655       C  0.17986466  0.60835400  0.51941911    -0.02260
C1656       C  0.17937427  0.61357509  0.54181864     0.07420
C1657       C  0.17753261  0.64077067  0.54698050    -0.02370
C1658       C  0.18451390  0.66421344  0.53131966    -0.02380
C1659       C  0.19446403  0.66137636  0.51109133     0.07550
C1660       C  0.19245329  0.63340126  0.50536338    -0.02570
Br1661     Br  0.20568354  0.62852270  0.47765721    -0.01120
Br1662     Br  0.15442291  0.56851514  0.50527009    -0.01190
Br1663     Br  0.18283032  0.70125650  0.53782603    -0.01150
Br1664     Br  0.16752149  0.64806321  0.57515296    -0.01140
C1665       C  0.21599394  0.55813858  0.51900403    -0.02260
C1666       C  0.19475374  0.52611080  0.51880018     0.07420
C1667       C  0.16926600  0.51338459  0.53237201    -0.02370
C1668       C  0.16209549  0.53318736  0.54374084    -0.02380
C1669       C  0.18522213  0.56597972  0.54635883     0.07550
C1670       C  0.21324056  0.57723566  0.53397792    -0.02570
Br1671     Br  0.24896156  0.61881618  0.53545061    -0.01120
Br1672     Br  0.24748046  0.57632093  0.49716687    -0.01190
Br1673     Br  0.11773208  0.51418646  0.54856769    -0.01150
Br1674     Br  0.14319510  0.96840325  0.53447329    -0.01140
C1675       C  0.09608142  0.56730240  0.58127142    -0.02260
C1676       C  0.09511529  0.55232582  0.60032452     0.07420
C1677       C  0.11958246  0.54728874  0.60542650    -0.02370
C1678       C  0.14406976  0.55532274  0.59110654    -0.02380
C1679       C  0.14822815  0.57419228  0.57247897     0.07550
C1680       C  0.12096748  0.57646366  0.56691276    -0.02570
Br1681     Br  0.11042168  0.58338334  0.53850922    -0.01120
Br1682     Br  0.06170159  0.57377773  0.57455680    -0.01190
Br1683     Br  0.16040637  0.52754665  0.59401222    -0.01150
Br1684     Br  0.11908146  0.02826835  0.63245539    -0.01140
C1685       C  0.37121399  0.58344328  0.60159197    -0.02260
C1686       C  0.39125874  0.60404976  0.58517883     0.07420
C1687       C  0.39786695  0.63591152  0.58620832    -0.02370
C1688       C  0.37949043  0.64351354  0.59854171    -0.02380
C1689       C  0.36107235  0.62353939  0.61464753     0.07550
C1690       C  0.35728006  0.59366314  0.61644028    -0.02570
Br1691     Br  0.33272189  0.56681798  0.63950400    -0.01120
Br1692     Br  0.36316382  0.54161256  0.60576148    -0.01190
Br1693     Br  0.37787463  0.68080855  0.59231388    -0.01150
Br1694     Br  0.43580871  0.67265961  0.57678198    -0.01140
C1695       C  0.40639831  0.62549137  0.53392249    -0.02260
C1696       C  0.42284669  0.61780852  0.54960978     0.07420
C1697       C  0.45653996  0.63566958  0.54744952    -0.02370
C1698       C  0.47049423  0.65436829  0.52928322    -0.02380
C1699       C  0.45220770  0.65502033  0.51252556     0.07550
C1700       C  0.42006728  0.63921499  0.51448038    -0.02570
Br1701     Br  0.39514534  0.64070546  0.49130911    -0.01120
Br1702     Br  0.37494850  0.63574287  0.54080719    -0.01190
Br1703     Br  0.01533511  0.68166124  0.52763667    -0.01150
Br1704     Br  0.48635982  0.64297821  0.56990362    -0.01140
C1705       C  0.35054876  0.56622544  0.54806902    -0.02260
C1706       C  0.37490316  0.56208467  0.55642212     0.07420
C1707       C  0.37053272  0.53156823  0.55144415    -0.02370
C1708       C  0.35141115  0.51417931  0.53387385    -0.02380
C1709       C  0.33538466  0.52569568  0.52179667     0.07550
C1710       C  0.33625115  0.55285197  0.52878703    -0.02570
Br1711     Br  0.31605937  0.57133444  0.51304441    -0.01120
Br1712     Br  0.32331367  0.57263282  0.56623211    -0.01190
Br1713     Br  0.34546389  0.97356239  0.52684922    -0.01150
Br1714     Br  0.38181761  0.50752317  0.57010371    -0.01140
C1715       C  0.44183636  0.56791645  0.56568763    -0.02260
C1716       C  0.42819131  0.58212732  0.57816203     0.07420
C1717       C  0.44081582  0.59061990  0.59955539    -0.02370
C1718       C  0.46002541  0.57979425  0.60812994    -0.02380
C1719       C  0.46475679  0.55810635  0.59728914     0.07550
C1720       C  0.45798968  0.55428289  0.57557824    -0.02570
Br1721     Br  0.47249890  0.53164359  0.55933213    -0.01120
Br1722     Br  0.43899089  0.56593617  0.53499363    -0.01190
Br1723     Br  0.48465397  0.59879055  0.63344748    -0.01150
Br1724     Br  0.44081443  0.62295431  0.61690046    -0.01140
C1725       C  0.38479613  0.80376792  0.59883605    -0.02260
C1726       C  0.40315244  0.80138442  0.58213856     0.07420
C1727       C  0.41398472  0.77945719  0.58657581    -0.02370
C1728       C  0.40535514  0.76154783  0.60542293    -0.02380
C1729       C  0.38019935  0.75779919  0.61738096     0.07550
C1730       C  0.37207276  0.78116052  0.61530765    -0.02570
Br1731     Br  0.34520084  0.78448449  0.63592006    -0.01120
Br1732     Br  0.37190787  0.83474126  0.59895323    -0.01190
Br1733     Br  0.43363304  0.74931825  0.61791690    -0.01150
Br1734     Br  0.44384442  0.77326754  0.57073110    -0.01140
C1735       C  0.39292637  0.83416048  0.52650327    -0.02260
C1736       C  0.38590178  0.82074463  0.54757333     0.07420
C1737       C  0.35272127  0.80094531  0.55166618    -0.02370
C1738       C  0.33077826  0.80202928  0.53781970    -0.02380
C1739       C  0.33891452  0.81152163  0.51676869     0.07550
C1740       C  0.36983170  0.82385334  0.51096632    -0.02570
Br1741     Br  0.38045601  0.82007553  0.48231721    -0.01120
Br1742     Br  0.43219990  0.86880206  0.51718876    -0.01190
Br1743     Br  0.28876274  0.78761633  0.54706131    -0.01150
Br1744     Br  0.33253912  0.76452169  0.57006844    -0.01140
C1745       C  0.46896201  0.84314531  0.54294412    -0.02260
C1746       C  0.43617798  0.82086964  0.54682505     0.07420
C1747       C  0.42213732  0.79365951  0.53317388    -0.02370
C1748       C  0.43891892  0.79005089  0.51687448    -0.02380
C1749       C  0.47113785  0.80967197  0.51572221     0.07550
C1750       C  0.48623633  0.83536436  0.52925123    -0.02570
Br1751     Br  0.03128096  0.86032444  0.52849436    -0.01120
Br1752     Br  0.49217167  0.88712644  0.55091371    -0.01190
Br1753     Br  0.41743093  0.75791961  0.49558423    -0.01150
Br1754     Br  0.38096513  0.75773218  0.53729518    -0.01140
C1755       C  0.45305845  0.86563070  0.59052304    -0.02260
C1756       C  0.43129857  0.85947507  0.57337899     0.07420
C1757       C  0.42498225  0.88466123  0.56902574    -0.02370
C1758       C  0.44339717  0.91443585  0.57848380    -0.02380
C1759       C  0.46168055  0.91809660  0.59652624     0.07550
C1760       C  0.46411937  0.89227833  0.60330986    -0.02570
Br1761     Br  0.98004227  0.89099125  0.63123133    -0.01120
Br1762     Br  0.47330411  0.84175431  0.59615675    -0.01190
Br1763     Br  0.44292312  0.95027561  0.56651318    -0.01150
Br1764     Br  0.38853949  0.88118662  0.55475142    -0.01140
C1765       C  0.13199317  0.90968067  0.34948893    -0.02260
C1766       C  0.12951658  0.88029338  0.35137908     0.07420
C1767       C  0.11268375  0.86058535  0.36808795    -0.02370
C1768       C  0.09528209  0.86818636  0.38153404    -0.02380
C1769       C  0.10143270  0.90017674  0.38266682     0.07550
C1770       C  0.11862405  0.91992128  0.36486924    -0.02570
Br1771     Br  0.12904102  0.96305047  0.36150493    -0.01120
Br1772     Br  0.15556455  0.93678980  0.32612909    -0.01190
Br1773     Br  0.05948657  0.83032603  0.39282698    -0.01150
Br1774     Br  0.11445617  0.82286880  0.37309816    -0.01140
C1775       C  0.12720188  0.73671861  0.38704308    -0.02260
C1776       C  0.09772770  0.70702281  0.38608549     0.07420
C1777       C  0.07994556  0.70300834  0.36689665    -0.02370
C1778       C  0.09205906  0.72514420  0.35010022    -0.02380
C1779       C  0.12239985  0.75060621  0.35099599     0.07550
C1780       C  0.14047072  0.75522447  0.36892922    -0.02570
Br1781     Br  0.18333348  0.78944532  0.36925236    -0.01120
Br1782     Br  0.14875255  0.75985689  0.41221397    -0.01190
Br1783     Br  0.06691008  0.72178842  0.32551978    -0.01150
Br1784     Br  0.03644668  0.67354600  0.36371634    -0.01140
C1785       C  0.27542482  0.87616527  0.34737020    -0.02260
C1786       C  0.24821988  0.87719237  0.34977521     0.07420
C1787       C  0.24600369  0.89410006  0.36651038    -0.02370
C1788       C  0.27143036  0.91123867  0.38033326    -0.02380
C1789       C  0.29680653  0.90471848  0.38147133     0.07550
C1790       C  0.29871649  0.88810948  0.36327573    -0.02570
Br1791     Br  0.32962375  0.87621549  0.35959507    -0.01120
Br1792     Br  0.28013747  0.85738844  0.32201335    -0.01190
Br1793     Br  0.27017410  0.94631888  0.39323645    -0.01150
Br1794     Br  0.20724070  0.89321781  0.37073149    -0.01140
C1795       C  0.02964935  0.93049420  0.24690916    -0.02260
C1796       C  0.06213491  0.93920130  0.24516138     0.07420
C1797       C  0.08296986  0.96243464  0.26035719    -0.02370
C1798       C  0.07266734  0.97617839  0.27532281    -0.02380
C1799       C  0.04111657  0.96656941  0.27693782     0.07550
C1800       C  0.01983709  0.94380812  0.26275666    -0.02570
Br1801     Br  0.47631205  0.93121394  0.26474762    -0.01120
Br1802     Br  0.99620744  0.90216245  0.22829014    -0.01190
Br1803     Br  0.10214216  0.50658553  0.29545888    -0.01150
Br1804     Br  0.12585566  0.97391054  0.26424811    -0.01140
C1805       C  0.09542940  0.88296209  0.27544339    -0.02260
C1806       C  0.11451443  0.87411520  0.26541776     0.07420
C1807       C  0.11643805  0.87549346  0.24345716    -0.02370
C1808       C  0.10198924  0.88905268  0.23147051    -0.02380
C1809       C  0.08800831  0.90505898  0.24157936     0.07550
C1810       C  0.08121167  0.89700576  0.26399283    -0.02570
Br1811     Br  0.04693630  0.89515735  0.28002941    -0.01120
Br1812     Br  0.08591350  0.87214760  0.30505814    -0.01190
Br1813     Br  0.10255050  0.88355748  0.20148737    -0.01150
Br1814     Br  0.13944476  0.85849830  0.23011106    -0.01140
C1815       C  0.04754438  0.63857997  0.26369154    -0.02260
C1816       C  0.07212132  0.64372216  0.25067458     0.07420
C1817       C  0.09285811  0.63633015  0.26178964    -0.02370
C1818       C  0.08004949  0.61065394  0.27637635    -0.02380
C1819       C  0.04768660  0.59521115  0.28133864     0.07550
C1820       C  0.03111558  0.60980773  0.27413610    -0.02570
Br1821     Br  0.48994277  0.59793125  0.28342743    -0.01120
Br1822     Br  0.06016009  0.67186992  0.28388301    -0.01190
Br1823     Br  0.10681903  0.59568933  0.28711286    -0.01150
Br1824     Br  0.13736135  0.65883486  0.25872202    -0.01140
C1825       C  0.99757869  0.65282525  0.20543177    -0.02260
C1826       C  0.00059867  0.64452486  0.18482099     0.07420
C1827       C  0.02004768  0.63252693  0.18142049    -0.02370
C1828       C  0.03563434  0.62886154  0.19855818    -0.02380
C1829       C  0.04265551  0.64766351  0.21708913     0.07550
C1830       C  0.01862393  0.65499007  0.22172012    -0.02570
Br1831     Br  0.01132039  0.66840594  0.24846599    -0.01120
Br1832     Br  0.46496379  0.66223689  0.21057262    -0.01190
Br1833     Br  0.03254629  0.58882600  0.19932689    -0.01150
Br1834     Br  0.02190933  0.61639983  0.15405951    -0.01140
C1835       C  0.12672574  0.71199670  0.23996542    -0.02260
C1836       C  0.09515216  0.69762837  0.23309173     0.07420
C1837       C  0.08176284  0.71713824  0.23563453    -0.02370
C1838       C  0.09383973  0.74121652  0.25102712    -0.02380
C1839       C  0.12172576  0.74927631  0.26209995     0.07550
C1840       C  0.13815342  0.73432997  0.25619816    -0.02570
Br1841     Br  0.17595905  0.74230588  0.27051893    -0.01120
Br1842     Br  0.15866749  0.71378639  0.22187738    -0.01190
Br1843     Br  0.07254764  0.76433811  0.25550629    -0.01150
Br1844     Br  0.05876372  0.72390238  0.21325504    -0.01140
C1845       C  0.40053477  0.96022322  0.24051378    -0.02260
C1846       C  0.36805575  0.93946321  0.24604818     0.07420
C1847       C  0.36221031  0.93790153  0.26860637    -0.02370
C1848       C  0.38630831  0.94544278  0.28341482    -0.02380
C1849       C  0.41739389  0.96346964  0.27748653     0.07550
C1850       C  0.42436972  0.97240868  0.25627450    -0.02570
Br1851     Br  0.46750285  0.00072624  0.24907244    -0.01120
Br1852     Br  0.41542376  0.97360149  0.21191046    -0.01190
Br1853     Br  0.37653423  0.93100220  0.31235389    -0.01150
Br1854     Br  0.32582736  0.93518946  0.28182328    -0.01140
C1855       C  0.35774808  0.96308266  0.17319319    -0.02260
C1856       C  0.36425543  0.99292370  0.17878858     0.07420
C1857       C  0.36146872  0.49943720  0.19980601    -0.02370
C1858       C  0.35188936  0.97581373  0.21562460    -0.02380
C1859       C  0.34529944  0.94474397  0.21040215     0.07550
C1860       C  0.34507624  0.93863342  0.18808275    -0.02570
Br1861     Br  0.31720285  0.89930425  0.17481710    -0.01120
Br1862     Br  0.36542410  0.95546994  0.14446030    -0.01190
Br1863     Br  0.34671137  0.48795166  0.24338063    -0.01150
Br1864     Br  0.36897856  0.54071290  0.20701677    -0.01140
C1865       C  0.25739935  0.90028121  0.24689302    -0.02260
C1866       C  0.24986249  0.87565741  0.26142810     0.07420
C1867       C  0.26932462  0.86250560  0.26206474    -0.02370
C1868       C  0.29941046  0.87884379  0.25351714    -0.02380
C1869       C  0.30785044  0.90396848  0.23858380     0.07550
C1870       C  0.28376248  0.91128575  0.23368480    -0.02570
Br1871     Br  0.28043202  0.93067529  0.20769799    -0.01120
Br1872     Br  0.23081265  0.91819716  0.24352169    -0.01190
Br1873     Br  0.32750399  0.86460213  0.26290456    -0.01150
Br1874     Br  0.25424752  0.81975626  0.27141182    -0.01140
C1875       C  0.38303120  0.88867148  0.19616504    -0.02260
C1876       C  0.36021898  0.85922559  0.18833941     0.07420
C1877       C  0.33084180  0.84462025  0.19811583    -0.02370
C1878       C  0.32233497  0.86260069  0.21083226    -0.02380
C1879       C  0.34625438  0.89346480  0.21822599     0.07550
C1880       C  0.37691564  0.90018047  0.21434389    -0.02570
Br1881     Br  0.40093023  0.89827100  0.23773530    -0.01120
Br1882     Br  0.42357055  0.91402330  0.18387842    -0.01190
Br1883     Br  0.27749637  0.84497942  0.21190212    -0.01150
Br1884     Br  0.30235399  0.80032902  0.19402151    -0.01140
C1885       C  0.00758062  0.85540898  0.19635234    -0.02260
C1886       C  0.00869339  0.87093767  0.17746556     0.07420
C1887       C  0.03344619  0.90070422  0.17357354    -0.02370
C1888       C  0.05833382  0.91391819  0.18775567    -0.02380
C1889       C  0.05425012  0.90367684  0.20973886     0.07550
C1890       C  0.02972744  0.87142443  0.21266976    -0.02570
Br1891     Br  0.02275662  0.84726991  0.23822365    -0.01120
Br1892     Br  0.47378914  0.81276511  0.20009965    -0.01190
Br1893     Br  0.09722287  0.93409913  0.17216730    -0.01150
Br1894     Br  0.03472580  0.92230097  0.14750218    -0.01140
C1895       C  0.13541447  0.96841502  0.21491625    -0.02260
C1896       C  0.10242559  0.95747593  0.21711568     0.07420
C1897       C  0.09189399  0.97672516  0.20639989    -0.02370
C1898       C  0.11036746  0.99954343  0.19135301    -0.02380
C1899       C  0.14131545  0.00772106  0.18844176     0.07550
C1900       C  0.15425587  0.99373081  0.20104845    -0.02570
Br1901     Br  0.19859293  0.50965107  0.19847062    -0.01120
Br1902     Br  0.15850388  0.95207787  0.22962266    -0.01190
Br1903     Br  0.09104517  0.01520232  0.17138071    -0.01150
Br1904     Br  0.05053316  0.97098947  0.20795190    -0.01140
C1905       C  0.10686609  0.63163451  0.21461194    -0.02260
C1906       C  0.09621304  0.65371489  0.21186402     0.07420
C1907       C  0.10297459  0.66880450  0.19136704    -0.02370
C1908       C  0.11726822  0.66096907  0.17545366    -0.02380
C1909       C  0.13325166  0.64532526  0.18076643     0.07550
C1910       C  0.13007044  0.63331393  0.20139084    -0.02570
Br1911     Br  0.15713532  0.61887818  0.21219434    -0.01120
Br1912     Br  0.08565970  0.59144119  0.22917744    -0.01190
Br1913     Br  0.11224473  0.66967883  0.14619791    -0.01150
Br1914     Br  0.09371756  0.70059590  0.18316800    -0.01140
C1915       C  0.19307891  0.91778732  0.92995104    -0.02260
C1916       C  0.21297237  0.92215610  0.94698343     0.07420
C1917       C  0.24142277  0.95008838  0.94852512    -0.02370
C1918       C  0.25177753  0.97216314  0.93175180    -0.02380
C1919       C  0.23180109  0.96838452  0.91370099     0.07550
C1920       C  0.20021889  0.94198199  0.91529728    -0.02570
Br1921     Br  0.16238202  0.93823241  0.90285862    -0.01120
Br1922     Br  0.15521630  0.87794180  0.92648292    -0.01190
Br1923     Br  0.29532252  0.00386061  0.93378824    -0.01150
Br1924     Br  0.26639393  0.95752375  0.97391631    -0.01140
C1925       C  0.08726670  0.77928740  0.93125271    -0.02260
C1926       C  0.08925296  0.80222962  0.94511317     0.07420
C1927       C  0.06561731  0.80958034  0.94513836    -0.02370
C1928       C  0.04104795  0.79565418  0.93034916    -0.02380
C1929       C  0.03960004  0.77386100  0.91477883     0.07550
C1930       C  0.06164575  0.76337001  0.91754871    -0.02570
Br1931     Br  0.05592890  0.72368852  0.90743045    -0.01120
Br1932     Br  0.11973372  0.76876152  0.93096805    -0.01190
Br1933     Br  0.01000887  0.80757760  0.93290880    -0.01150
Br1934     Br  0.06599344  0.83789693  0.96636872    -0.01140
C1935       C  0.20580874  0.80433092  0.92586590    -0.02260
C1936       C  0.21163549  0.80086326  0.94702733     0.07420
C1937       C  0.22618691  0.78404003  0.95216291    -0.02370
C1938       C  0.22991724  0.76604292  0.93678864    -0.02380
C1939       C  0.22829620  0.77181966  0.91441387     0.07550
C1940       C  0.21250225  0.78914638  0.90969137    -0.02570
Br1941     Br  0.19480956  0.79075822  0.88249611    -0.01120
Br1942     Br  0.19256997  0.83398768  0.91915969    -0.01190
Br1943     Br  0.22518563  0.72770040  0.94884167    -0.01150
Br1944     Br  0.24178170  0.78603648  0.98051086    -0.01140
C1945       C  0.28496523  0.54285784  0.03501432    -0.02260
C1946       C  0.26515665  0.54378824  0.05134542     0.07420
C1947       C  0.25387480  0.56541774  0.04686506    -0.02370
C1948       C  0.26313520  0.58426141  0.02831851    -0.02380
C1949       C  0.28793522  0.58761522  0.01607993     0.07550
C1950       C  0.29744209  0.56567107  0.01868120    -0.02570
Br1951     Br  0.32614261  0.56544495  0.99825503    -0.01120
Br1952     Br  0.30034498  0.51399135  0.03494392    -0.01190
Br1953     Br  0.23842157  0.60207210  0.01789033    -0.01150
Br1954     Br  0.22268887  0.56991334  0.06247802    -0.01140
C1955       C  0.27284908  0.50834183  0.10722753    -0.02260
C1956       C  0.28088692  0.52360837  0.08659271     0.07420
C1957       C  0.31401756  0.54420054  0.08346597    -0.02370
C1958       C  0.33543435  0.54247191  0.09728954    -0.02380
C1959       C  0.32668187  0.53116931  0.11802587     0.07550
C1960       C  0.29526322  0.51653362  0.12330492    -0.02570
Br1961     Br  0.28217856  0.00846681  0.15264140    -0.01120
Br1962     Br  0.23324957  0.97196196  0.11423934    -0.01190
Br1963     Br  0.37681357  0.55524210  0.08727361    -0.01150
Br1964     Br  0.33470769  0.58119810  0.06571093    -0.01140
C1965       C  0.24394536  0.54921134  0.10014075    -0.02260
C1966       C  0.23050800  0.52234169  0.08615058     0.07420
C1967       C  0.19784497  0.49928115  0.08997186    -0.02370
C1968       C  0.18042670  0.50558603  0.10460761    -0.02380
C1969       C  0.19533252  0.53070181  0.11855981     0.07550
C1970       C  0.22723185  0.55140373  0.11701088    -0.02570
Br1971     Br  0.24827287  0.58336655  0.13852101    -0.01120
Br1972     Br  0.28422996  0.58642444  0.09605395    -0.01190
Br1973     Br  0.13560452  0.47926338  0.10644422    -0.01150
Br1974     Br  0.17508412  0.45590040  0.08064083    -0.01140
C1975       C  0.23443283  0.93482451  0.04902012    -0.02260
C1976       C  0.21105284  0.92846365  0.03405741     0.07420
C1977       C  0.20257597  0.95099007  0.03013354    -0.02370
C1978       C  0.21503696  0.97846821  0.04237022    -0.02380
C1979       C  0.23793101  0.98538320  0.05898189     0.07550
C1980       C  0.24780996  0.96232179  0.06152686    -0.02570
Br1981     Br  0.28282651  0.96655506  0.07840925    -0.01120
Br1982     Br  0.25061203  0.90662377  0.05072189    -0.01190
Br1983     Br  0.19536531  0.00291433  0.03679042    -0.01150
Br1984     Br  0.17552989  0.94560213  0.00615541    -0.01140
C1985       C  0.43677470  0.74837564  0.02208706    -0.02260
C1986       C  0.41272011  0.71699660  0.02108159     0.07420
C1987       C  0.41267533  0.69592957  0.03581749    -0.02370
C1988       C  0.43878110  0.70400708  0.04885580    -0.02380
C1989       C  0.46347383  0.73674707  0.05184705     0.07550
C1990       C  0.46210665  0.75802611  0.03656866    -0.02570
Br1991     Br  0.49752652  0.79760519  0.02898689    -0.01120
Br1992     Br  0.43588740  0.77821041  0.00233023    -0.01190
Br1993     Br  0.44081915  0.66643567  0.05588926    -0.01150
Br1994     Br  0.37536459  0.65536770  0.03857688    -0.01140
C1995       C  0.99523846  0.80236095  0.07968631    -0.02260
C1996       C  0.49318015  0.77353022  0.08591066     0.07420
C1997       C  0.48999417  0.76848949  0.10876955    -0.02370
C1998       C  0.47576581  0.78126651  0.12091448    -0.02380
C1999       C  0.47204576  0.80550011  0.11286520     0.07550
C2000       C  0.98087068  0.81535932  0.09187007    -0.02570
Br2001     Br  0.97854699  0.85060955  0.08097836    -0.01120
Br2002     Br  0.03469101  0.83575377  0.06941294    -0.01190
Br2003     Br  0.45979856  0.76445447  0.14882468    -0.01150
Br2004     Br  0.50829672  0.74924673  0.12638768    -0.01140
C2005       C  0.00338737  0.70463242  0.08585496    -0.02260
C2006       C  0.48401859  0.71850394  0.08333177     0.07420
C2007       C  0.45564699  0.70469298  0.09580964    -0.02370
C2008       C  0.45005356  0.68231511  0.11159219    -0.02380
C2009       C  0.47134863  0.67221800  0.11521410     0.07550
C2010       C  0.99694653  0.68212983  0.10193031    -0.02570
Br2011     Br  0.02293215  0.66371436  0.10595931    -0.01120
Br2012     Br  0.03750636  0.71182837  0.06779913    -0.01190
Br2013     Br  0.41446240  0.66779045  0.13009536    -0.01150
Br2014     Br  0.42386243  0.71672983  0.09319156    -0.01140
C2015       C  0.05400096  0.78403899  0.06535885    -0.02260
C2016       C  0.02390029  0.76177006  0.05646047     0.07420
C2017       C  0.02503451  0.75239273  0.03495712    -0.02370
C2018       C  0.05198302  0.76874792  0.02257208    -0.02380
C2019       C  0.07992725  0.79179769  0.03142668     0.07550
C2020       C  0.08111247  0.79923027  0.05273403    -0.02570
Br2021     Br  0.12096029  0.83064887  0.06433672    -0.01120
Br2022     Br  0.06237101  0.79270964  0.09493135    -0.01190
Br2023     Br  0.05084895  0.75947866  0.99279419    -0.01150
Br2024     Br  0.99418398  0.71373504  0.02194502    -0.01140
C2025       C  0.28433889  0.75364096  0.03055503    -0.02260
C2026       C  0.27057957  0.73589296  0.04973328     0.07420
C2027       C  0.26572363  0.70444804  0.04955492    -0.02370
C2028       C  0.28220433  0.69679667  0.03532037    -0.02380
C2029       C  0.29217915  0.71278108  0.01605995     0.07550
C2030       C  0.29106761  0.74027189  0.01330089    -0.02570
Br2031     Br  0.29826130  0.75974190  0.98575108    -0.01120
Br2032     Br  0.29867770  0.79754993  0.02692247    -0.01190
Br2033     Br  0.29424739  0.66692872  0.04383175    -0.01150
Br2034     Br  0.23217856  0.66699678  0.06274681    -0.01140
C2035       C  0.28012314  0.78940569  0.10001692    -0.02260
C2036       C  0.28683603  0.77510015  0.08251982     0.07420
C2037       C  0.31849597  0.78156550  0.08213266    -0.02370
C2038       C  0.33700146  0.79319159  0.10050207    -0.02380
C2039       C  0.33221594  0.81211547  0.11470522     0.07550
C2040       C  0.30441679  0.81252633  0.11242011    -0.02570
Br2041     Br  0.30019985  0.84665984  0.12326018    -0.01120
Br2042     Br  0.23933119  0.78100607  0.10795210    -0.01190
Br2043     Br  0.36245552  0.77522253  0.10832099    -0.01150
Br2044     Br  0.33940193  0.77285465  0.05988706    -0.01140
C2045       C  0.20507354  0.71144833  0.08821378    -0.02260
C2046       C  0.23809988  0.72384104  0.08492067     0.07420
C2047       C  0.25265088  0.71261110  0.09992353    -0.02370
C2048       C  0.23679498  0.69499596  0.11780931    -0.02380
C2049       C  0.20463332  0.68071921  0.11859552     0.07550
C2050       C  0.18871799  0.68676286  0.10267085    -0.02570
Br2051     Br  0.14415188  0.65964476  0.09992516    -0.01120
Br2052     Br  0.17944757  0.72829444  0.07833169    -0.01190
Br2053     Br  0.25882828  0.68845515  0.14094486    -0.01150
Br2054     Br  0.29149185  0.71375813  0.09568672    -0.01140
C2055       C  0.21843064  0.74733776  0.03981243    -0.02260
C2056       C  0.24171283  0.76495969  0.05580989     0.07420
C2057       C  0.24816329  0.79664607  0.05879197    -0.02370
C2058       C  0.22748107  0.80554972  0.05116429    -0.02380
C2059       C  0.20866005  0.79071742  0.03377884     0.07550
C2060       C  0.20320514  0.76059665  0.02843417    -0.02570
Br2061     Br  0.17285501  0.73526910  0.00676328    -0.01120
Br2062     Br  0.20356100  0.70370051  0.03378974    -0.01190
Br2063     Br  0.22033936  0.83344455  0.06776341    -0.01150
Br2064     Br  0.28763672  0.83390774  0.06565721    -0.01140
C2065       C  0.75929110  0.24998588  0.06797943    -0.02900
C2066       C  0.99176583  0.24791690  0.06911749    -0.03080
C2067       C  0.75350024  0.01872929  0.07060458    -0.02900
O2068       O  0.71186547  0.33747109  0.01882793    -0.82210
C2069       C  0.61290530  0.31419804  0.96205522     0.97140
O2070       O  0.61720746  0.29494741  0.97222381    -0.71330
O2071       O  0.66995535  0.29798573  0.96644889    -0.74920
Al2072     Al  0.64803073  0.29828202  0.99081501     1.48980
C2073       C  0.69895115  0.31133195  0.96396946     0.92400
O2074       O  0.71596901  0.38433504  0.96895677    -0.81140
O2075       O  0.66897322  0.38377280  0.01738025    -0.74700
Al2076     Al  0.71140094  0.36024574  0.99385258     1.90120
O2077       O  0.67856744  0.39439928  0.97461176    -0.73770
O2078       O  0.61545841  0.33258561  0.00922226    -0.73620
O2079       O  0.62741557  0.34268438  0.96688620    -0.79280
O2080       O  0.62291694  0.29307002  0.01473167    -0.77480
O2081       O  0.66957513  0.33997657  0.99244696    -1.13610
O2082       O  0.67381721  0.29179247  0.00894793    -0.72810
C2083       C  0.69727203  0.30776720  0.02026162     0.97910
C2084       C  0.70206003  0.39899462  0.96440899     0.94300
Al2085     Al  0.64948916  0.36139405  0.99216115     1.55560
O2086       O  0.71721353  0.33289987  0.97612137    -0.77430
C2087       C  0.60807536  0.30695815  0.01817554     0.98470
C2088       C  0.69788721  0.40000535  0.02056270     0.93350
O2089       O  0.71605497  0.39349474  0.01125430    -0.82750
C2090       C  0.65134658  0.13971850  0.16459972     0.02720
C2091       C  0.64785328  0.10990546  0.16265562    -0.13430
C2092       C  0.66700041  0.10478956  0.14912764     0.00220
C2093       C  0.68595864  0.12857999  0.13485575    -0.11960
C2094       C  0.68724183  0.15738292  0.13513318     0.02710
C2095       C  0.67178628  0.16367799  0.15091713    -0.11380
H2096       H  0.63061146  0.09087638  0.17218262     0.08300
H2097       H  0.70034482  0.12539617  0.12366362     0.05830
H2098       H  0.67508939  0.18696562  0.15208162     0.05680
C2099       C  0.65887747  0.52921825  0.17076726     0.02720
C2100       C  0.66161152  0.05879897  0.16977691    -0.13430
C2101       C  0.66781856  0.07522711  0.15050137     0.00220
C2102       C  0.67552870  0.06349124  0.13292550    -0.11960
C2103       C  0.67792300  0.03663547  0.13480881     0.02710
C2104       C  0.66814658  0.51859705  0.15337828    -0.11380
H2105       H  0.65632585  0.06749113  0.18381144     0.08300
H2106       H  0.68120987  0.07571261  0.11790076     0.05830
H2107       H  0.66774519  0.49654908  0.15425281     0.05680
C2108       C  0.48512729  0.35557343  0.16086071     0.02720
C2109       C  0.95866263  0.35812972  0.16098451    -0.13430
C2110       C  0.93544802  0.34332576  0.14546772     0.00220
C2111       C  0.94052346  0.32725690  0.12892125    -0.11960
C2112       C  0.96766728  0.32540521  0.12839995     0.02710
C2113       C  0.49004930  0.34002176  0.14443038    -0.11380
H2114       H  0.95668970  0.37199751  0.17330612     0.08300
H2115       H  0.92340027  0.31530111  0.11675760     0.05830
H2116       H  0.51105348  0.33863034  0.14441015     0.05680
C2117       C  0.85501510  0.32902247  0.13231979     0.02720
C2118       C  0.84563869  0.33391959  0.15219967    -0.13430
C2119       C  0.86663050  0.34561658  0.16930348     0.00220
C2120       C  0.89478324  0.34604538  0.16749136    -0.11960
C2121       C  0.90545452  0.34297210  0.14757725     0.02710
C2122       C  0.88645587  0.33821239  0.12985550    -0.11380
H2123       H  0.82217758  0.32862927  0.15461664     0.08300
H2124       H  0.90840182  0.34970612  0.18172021     0.05830
H2125       H  0.89523205  0.33889355  0.11417817     0.05680
C2126       C  0.84143708  0.42042013  0.22835100    -0.02900
C2127       C  0.57632538  0.16074108  0.22838494    -0.02900
C2128       C  0.57667010  0.42570206  0.22850007    -0.02900
O2129       O  0.61705057  0.27986270  0.28926351    -0.82210
C2130       C  0.72367837  0.36367019  0.33336839     0.97140
O2131       O  0.70763434  0.33435114  0.33086486    -0.71330
O2132       O  0.65678310  0.27953110  0.32332707    -0.74920
Al2133     Al  0.68481247  0.31374763  0.30594469     1.48980
C2134       C  0.63414897  0.27496407  0.33442316     0.92400
O2135       O  0.62093213  0.34258398  0.32560086    -0.81140
O2136       O  0.65678272  0.38069658  0.28648298    -0.74700
Al2137     Al  0.62302269  0.31367331  0.30714036     1.90120
O2138       O  0.66848888  0.38240416  0.32866038    -0.73770
O2139       O  0.70705154  0.37694439  0.27846387    -0.73620
O2140       O  0.71982183  0.38210165  0.32150384    -0.79280
O2141       O  0.71813920  0.34199447  0.28882495    -0.77480
O2142       O  0.66449012  0.33478031  0.30568818    -1.13610
O2143       O  0.66416181  0.29141674  0.28093356    -0.72810
C2144       C  0.63506496  0.27494064  0.27818373     0.97910
C2145       C  0.64051037  0.36786973  0.33438956     0.94300
Al2146     Al  0.68609150  0.37673793  0.30382785     1.55560
O2147       O  0.62174638  0.29134957  0.33178532    -0.77430
C2148       C  0.72325671  0.36413977  0.27662346     0.98470
C2149       C  0.63084310  0.36173599  0.27834619     0.93350
O2150       O  0.61741544  0.33295791  0.28265960    -0.82750
C2151       C  0.97763648  0.13957791  0.16822559     0.02720
C2152       C  0.48533614  0.15996025  0.15088110    -0.13430
C2153       C  0.96587589  0.15045682  0.13294239     0.00220
C2154       C  0.93993118  0.12034445  0.13214845    -0.11960
C2155       C  0.93080914  0.10077267  0.15001870     0.02710
C2156       C  0.94975786  0.11090483  0.16814200    -0.11380
H2157       H  0.50655429  0.18257760  0.15113589     0.08300
H2158       H  0.92647760  0.11286443  0.11761085     0.05830
H2159       H  0.94374044  0.09628065  0.18213534     0.05680
C2160       C  0.87039002  0.01642129  0.16210113     0.02720
C2161       C  0.84715047  0.01130975  0.14725266    -0.13430
C2162       C  0.85040265  0.03588854  0.13423592     0.00220
C2163       C  0.87671446  0.06554670  0.13670920    -0.11960
C2164       C  0.90173345  0.06995208  0.14956919     0.02710
C2165       C  0.89845107  0.04486690  0.16204570    -0.11380
H2166       H  0.82644546  0.48841502  0.14621493     0.08300
H2167       H  0.87771744  0.08502044  0.12809085     0.05830
H2168       H  0.91703349  0.04733930  0.17234324     0.05680
C2169       C  0.91411914  0.32562306  0.56259264    -0.02900
C2170       C  0.90469788  0.09159290  0.56762701    -0.02900
C2171       C  0.68021010  0.09046612  0.55911175    -0.02900
O2172       O  0.55127869  0.00899822  0.61640284    -0.82210
C2173       C  0.96853924  0.02953751  0.66514894     0.97140
O2174       O  0.99246984  0.05017885  0.65579482    -0.71330
O2175       O  0.54284136  0.05040949  0.66514507    -0.74920
Al2176     Al  0.52341351  0.04867116  0.63907096     1.48980
C2177       C  0.55845836  0.03784389  0.67006467     0.92400
O2178       O  0.00320460  0.46404041  0.66436670    -0.81140
O2179       O  0.96325689  0.46387077  0.61038214    -0.74700
Al2180     Al  0.52558099  0.48730379  0.63996670     1.90120
O2181       O  0.95667610  0.44941481  0.65272029    -0.73770
O2182       O  0.95828558  0.01456031  0.61784454    -0.73620
O2183       O  0.95622615  0.00116156  0.66027679    -0.79280
O2184       O  0.00589069  0.05322528  0.61310955    -0.77480
O2185       O  0.00392107  0.00692313  0.63783139    -1.13610
O2186       O  0.55927229  0.05598495  0.62312024    -0.72810
C2187       C  0.56687135  0.03837869  0.61382925     0.97910
C2188       C  0.97418048  0.44723249  0.66640356     0.94300
Al2189     Al  0.96241676  0.48438137  0.63533576     1.55560
O2190       O  0.55634596  0.01554219  0.65941001    -0.77430
C2191       C  0.97715033  0.04048785  0.60924674     0.98470
C2192       C  0.97586129  0.44732131  0.60954393     0.93350
O2193       O  0.99927749  0.45406292  0.62109539    -0.82750
C2194       C  0.68185157  0.47657865  0.47061396     0.02720
C2195       C  0.70731902  0.47155252  0.47261341    -0.13430
C2196       C  0.73017725  0.48639876  0.48877714     0.00220
C2197       C  0.72423490  0.50259624  0.50448285    -0.11960
C2198       C  0.69839642  0.50634824  0.50322480     0.02710
C2199       C  0.67832230  0.49484378  0.48583964    -0.11380
H2200       H  0.70943035  0.45679200  0.46110087     0.08300
H2201       H  0.74035123  0.01455309  0.51719824     0.05830
H2202       H  0.66006534  0.50048614  0.48412527     0.05680
C2203       C  0.81310942  0.00715725  0.50435565     0.02720
C2204       C  0.78163511  0.99860082  0.50602109    -0.13430
C2205       C  0.76128680  0.98814552  0.48830061     0.00220
C2206       C  0.77236480  0.98198523  0.46966809    -0.11960
C2207       C  0.80204213  0.98527815  0.46895557     0.02710
C2208       C  0.82298363  0.99946851  0.48587074    -0.11380
H2209       H  0.77406050  0.00185832  0.52120586     0.08300
H2210       H  0.75794118  0.47342492  0.45568669     0.05830
H2211       H  0.84651642  0.00384610  0.48480720     0.05680
C2212       C  0.96736247  0.17741021  0.49493206     0.02720
C2213       C  0.98007815  0.16963543  0.47820109    -0.13430
C2214       C  0.00286167  0.19330929  0.46553785     0.00220
C2215       C  0.01102915  0.22458032  0.46906218    -0.11960
C2216       C  0.99434365  0.23218869  0.48323852     0.02710
C2217       C  0.97288369  0.20804042  0.49664309    -0.11380
H2218       H  0.97362857  0.14544046  0.47598989     0.08300
H2219       H  0.53030267  0.24279584  0.46031592     0.05830
H2220       H  0.96052359  0.21239025  0.50877737     0.05680
C2221       C  0.51497978  0.31512099  0.46604423     0.02720
C2222       C  0.50251054  0.32355234  0.48268959    -0.13430
C2223       C  0.48865863  0.30316955  0.49980263     0.00220
C2224       C  0.48864514  0.27489250  0.50076388    -0.11960
C2225       C  0.49897770  0.26470699  0.48359210     0.02710
C2226       C  0.51200082  0.28534976  0.46611981    -0.11380
H2227       H  0.50329032  0.34581259  0.48221180     0.08300
H2228       H  0.97915433  0.26062896  0.51476281     0.05830
H2229       H  0.51986193  0.27877328  0.45229730     0.05680
C2230       C  0.81520351  0.30429486  0.50001849     0.02720
C2231       C  0.79218401  0.27325273  0.49650251    -0.13430
C2232       C  0.77300188  0.26483527  0.47843796     0.00220
C2233       C  0.78251686  0.28737577  0.46202661    -0.11960
C2234       C  0.80339116  0.31958039  0.46588181     0.02710
C2235       C  0.81797044  0.32764124  0.48593224    -0.11380
H2236       H  0.79012319  0.25608382  0.50800936     0.08300
H2237       H  0.77318013  0.28006563  0.44629381     0.05830
H2238       H  0.83268655  0.35177630  0.49046648     0.05680
C2239       C  0.70328487  0.18553891  0.49457160     0.02720
C2240       C  0.73325949  0.21172898  0.49399768    -0.13430
C2241       C  0.74242490  0.23420790  0.47747882     0.00220
C2242       C  0.72007033  0.22884058  0.46152271    -0.11960
C2243       C  0.69029216  0.20204056  0.46182163     0.02710
C2244       C  0.68233214  0.18030187  0.47817019    -0.11380
H2245       H  0.74876125  0.21381347  0.50676125     0.08300
H2246       H  0.72464992  0.24585023  0.44925085     0.05830
H2247       H  0.65925864  0.15969201  0.47853036     0.05680
C2248       C  0.58911813  0.41304089  0.40115741    -0.02900
C2249       C  0.58577445  0.18177401  0.40514557    -0.02900
C2250       C  0.82281320  0.41668489  0.39997377    -0.02900
O2251       O  0.51117445  0.06198834  0.33998570    -0.82210
C2252       C  0.53030481  0.47873135  0.29452698     0.97140
O2253       O  0.54448943  0.50769223  0.29878786    -0.71330
O2254       O  0.54945539  0.06213940  0.30827329    -0.74920
Al2255     Al  0.54247606  0.02655828  0.32462620     1.48980
C2256       C  0.53273076  0.06752980  0.29595144     0.92400
O2257       O  0.94850512  0.00051528  0.30364707    -0.81140
O2258       O  0.94703889  0.46090109  0.34153375    -0.74700
Al2259     Al  0.98185424  0.02840175  0.32194811     1.90120
O2260       O  0.95612283  0.46125346  0.29880533    -0.73770
O2261       O  0.49918396  0.46012647  0.34878081    -0.73620
O2262       O  0.00731139  0.45959731  0.30552409    -0.79280
O2263       O  0.54661740  0.99627593  0.34130156    -0.77480
O2264       O  0.50098320  0.00622196  0.32359298    -1.13610
O2265       O  0.54441796  0.04800620  0.35044036    -0.72810
C2266       C  0.53297841  0.06564071  0.35230558     0.97910
C2267       C  0.94226911  0.47579098  0.29408800     0.94300
Al2268     Al  0.97936338  0.46429879  0.32374470     1.55560
O2269       O  0.50358643  0.05022460  0.29689985    -0.77430
C2270       C  0.52810348  0.47201479  0.35147832     0.98470
C2271       C  0.94142369  0.48011616  0.35059373     0.93350
O2272       O  0.95747648  0.50907838  0.34659059    -0.82750
C2273       C  0.91698186  0.35107545  0.73591149    -0.02900
C2274       C  0.65325063  0.08708527  0.73816988    -0.02900
C2275       C  0.92203533  0.07870212  0.73269657    -0.02900
O2276       O  0.78579669  0.12881490  0.68693998    -0.82210
C2277       C  0.86435653  0.23090495  0.63273620     0.97140
O2278       O  0.84111511  0.22680276  0.64297834    -0.71330
O2279       O  0.78815547  0.17470674  0.63507183    -0.74920
Al2280     Al  0.81106391  0.19404020  0.66045202     1.48980
C2281       C  0.77005466  0.14576371  0.63220129     0.92400
O2282       O  0.82218829  0.12446049  0.63552306    -0.81140
O2283       O  0.87171074  0.16818347  0.68557952    -0.74700
Al2284     Al  0.80557158  0.12902418  0.66125147     1.90120
O2285       O  0.87113958  0.15865961  0.64245678    -0.73770
O2286       O  0.87811435  0.22318403  0.67788969    -0.73620
O2287       O  0.87405196  0.21210666  0.63551797    -0.79280
O2288       O  0.83231996  0.21654029  0.68542340    -0.77480
O2289       O  0.82901400  0.17073900  0.66083084    -1.13610
O2290       O  0.77692280  0.16653684  0.67796849    -0.72810
C2291       C  0.77046073  0.14257354  0.68892009     0.97910
C2292       C  0.85069325  0.13621049  0.63163026     0.94300
Al2293     Al  0.87011774  0.18888046  0.66046308     1.55560
O2294       O  0.77222177  0.12673971  0.64449108    -0.77430
C2295       C  0.86154716  0.23118675  0.68783451     0.98470
C2296       C  0.85881086  0.13893015  0.68772121     0.93350
O2297       O  0.83402009  0.12135888  0.67762062    -0.82750
C2298       C  0.81304770  0.46897690  0.82882021     0.02720
C2299       C  0.83349357  0.99216412  0.81475239    -0.13430
C2300       C  0.84807882  0.98486244  0.79896784     0.00220
C2301       C  0.84472985  0.45514126  0.79856661    -0.11960
C2302       C  0.82342416  0.43102429  0.81183900     0.02710
C2303       C  0.80679666  0.43809397  0.82646989    -0.11380
H2304       H  0.83801253  0.01590249  0.81597433     0.08300
H2305       H  0.85879668  0.45125207  0.78751831     0.05830
H2306       H  0.78940891  0.41991603  0.83644552     0.05680
C2307       C  0.82947952  0.36225154  0.79226686     0.02720
C2308       C  0.82659952  0.38888316  0.79204397    -0.13430
C2309       C  0.81944365  0.39910751  0.81066822     0.00220
C2310       C  0.81107558  0.37958868  0.82860029    -0.11960
C2311       C  0.80771921  0.34967987  0.82756669     0.02710
C2312       C  0.81783402  0.34144963  0.80941049    -0.11380
H2313       H  0.83321067  0.40302666  0.77781110     0.08300
H2314       H  0.80696494  0.38734065  0.84352261     0.05830
H2315       H  0.81799633  0.31969276  0.80896597     0.05680
C2316       C  0.62643374  0.98725686  0.80157620     0.02720
C2317       C  0.64919632  0.99196822  0.81660791    -0.13430
C2318       C  0.64364954  0.46885399  0.83162812     0.00220
C2319       C  0.61541876  0.44020254  0.83090661    -0.11960
C2320       C  0.59193432  0.43464861  0.81578796     0.02710
C2321       C  0.59778274  0.45906814  0.80143935    -0.11380
H2322       H  0.67129896  0.01378106  0.81664419     0.08300
H2323       H  0.61262301  0.42227657  0.84201057     0.05830
H2324       H  0.58047624  0.45668896  0.78999411     0.05680
C2325       C  0.51628472  0.36349050  0.79548058     0.02720
C2326       C  0.00989071  0.34203614  0.81209349    -0.13430
C2327       C  0.52811605  0.35149760  0.83058449     0.00220
C2328       C  0.55253366  0.38273495  0.83217790    -0.11960
C2329       C  0.56226616  0.40327041  0.81465804     0.02710
C2330       C  0.54335429  0.39316809  0.79625828    -0.11380
H2331       H  0.98968530  0.31873166  0.81111175     0.08300
H2332       H  0.56431970  0.39040679  0.84726973     0.05830
H2333       H  0.54839146  0.40840148  0.78271481     0.05680
C2334       C  0.63584632  0.17203530  0.79461023     0.02720
C2335       C  0.60717388  0.17071792  0.79461139    -0.13430
C2336       C  0.59457857  0.17378511  0.81357510     0.00220
C2337       C  0.61189707  0.17862170  0.83238356    -0.11960
C2338       C  0.64364667  0.18741620  0.83187460     0.02710
C2339       C  0.65531405  0.18441652  0.81227846    -0.11380
H2340       H  0.59390420  0.16472026  0.78001703     0.08300
H2341       H  0.60011725  0.17488774  0.84717701     0.05830
H2342       H  0.67908313  0.19002185  0.81077743     0.05680
C2343       C  0.53405141  0.19646259  0.82552423     0.02720
C2344       C  0.01603413  0.18629385  0.80704442    -0.13430
C2345       C  0.01858494  0.16558606  0.79322858     0.00220
C2346       C  0.54215463  0.15839807  0.79723054    -0.11960
C2347       C  0.56443258  0.17358373  0.81339583     0.02710
C2348       C  0.55900855  0.19126824  0.82817545    -0.11380
H2349       H  0.99912175  0.19343654  0.80406301     0.08300
H2350       H  0.54348769  0.14138087  0.78740166     0.05830
H2351       H  0.57452149  0.20195348  0.84149889     0.05680
C2352       C  0.74198467  0.25903866  0.89652471    -0.02900
C2353       C  0.74404731  0.49341410  0.89470131    -0.02900
C2354       C  0.51345802  0.26125858  0.89703243    -0.02900
O2355       O  0.79080519  0.13048093  0.94530108    -0.82210
C2356       C  0.89018694  0.20482301  0.00285131     0.97140
O2357       O  0.88590968  0.18080226  0.99291699    -0.71330
O2358       O  0.83185065  0.12903576  0.99805626    -0.74920
Al2359     Al  0.85418767  0.15198321  0.97346666     1.48980
C2360       C  0.80267050  0.11285127  0.99973990     0.92400
O2361       O  0.79007217  0.17167093  0.99553601    -0.81140
O2362       O  0.83692538  0.21717212  0.94492501    -0.74700
Al2363     Al  0.79271510  0.15252900  0.97036742     1.90120
O2364       O  0.82601825  0.21972104  0.98764630    -0.73770
O2365       O  0.88955701  0.21977774  0.95456580    -0.73620
O2366       O  0.87613347  0.21873599  0.99708042    -0.79280
O2367       O  0.87928698  0.17188439  0.94902160    -0.77480
O2368       O  0.83420847  0.17317282  0.97150969    -1.13610
O2369       O  0.82602907  0.11844882  0.95491187    -0.72810
C2370       C  0.80271146  0.11333308  0.94365529     0.97910
C2371       C  0.80340767  0.20070982  0.99894373     0.94300
Al2372     Al  0.85530950  0.21508643  0.97100126     1.55560
O2373       O  0.78575322  0.11778566  0.98737698    -0.77430
C2374       C  0.89510507  0.20085252  0.94509826     0.98470
C2375       C  0.80809823  0.20544782  0.94221407     0.93350
O2376       O  0.78919670  0.18226897  0.95313601    -0.82750
C2377       C  0.92293643  0.21403709  0.90956474    -0.02260
C2378       C  0.92347833  0.21334665  0.93186873     0.07420
C2379       C  0.95164756  0.22275602  0.94223161    -0.02370
C2380       C  0.97867058  0.23166993  0.93072209    -0.02380
C2381       C  0.98075812  0.24004637  0.90857374     0.07550
C2382       C  0.95116775  0.22692020  0.89782948    -0.02570
Br2383     Br  0.94785134  0.22546336  0.86720333    -0.01120
Br2384     Br  0.88371850  0.20002027  0.89535123    -0.01190
Br2385     Br  0.00590173  0.22021390  0.94526231    -0.01150
Br2386     Br  0.95341631  0.22215095  0.97280260    -0.01140
C2387       C  0.74385194  0.03260791  0.92268673    -0.02260
C2388       C  0.76033273  0.02703415  0.90612839     0.07420
C2389       C  0.79248006  0.05218067  0.90311576    -0.02370
C2390       C  0.80458739  0.08112509  0.91391026    -0.02380
C2391       C  0.78774006  0.08516567  0.92983159     0.07550
C2392       C  0.75772286  0.06069297  0.93442136    -0.02570
Br2393     Br  0.73544805  0.06532001  0.95775027    -0.01120
Br2394     Br  0.70067388  0.00420316  0.92944204    -0.01190
Br2395     Br  0.84553158  0.11614691  0.90751447    -0.01150
Br2396     Br  0.82518601  0.04883401  0.88895790    -0.01140
C2397       C  0.78696416  0.26350359  0.92053973    -0.02260
C2398       C  0.75949569  0.24391495  0.90802439     0.07420
C2399       C  0.74931994  0.21097686  0.90769912    -0.02370
C2400       C  0.76854108  0.20007311  0.91577430    -0.02380
C2401       C  0.79534681  0.21974414  0.92758213     0.07550
C2402       C  0.80520394  0.25167708  0.92921787    -0.02570
Br2403     Br  0.84557838  0.28030566  0.94150217    -0.01120
Br2404     Br  0.80201603  0.30745027  0.92573166    -0.01190
Br2405     Br  0.75820155  0.15736228  0.91044825    -0.01150
Br2406     Br  0.70652759  0.17764825  0.90368317    -0.01140
C2407       C  0.54602244  0.24405152  0.84559941    -0.02260
C2408       C  0.52675008  0.21205652  0.84256035     0.07420
C2409       C  0.00509632  0.19406466  0.85819059    -0.02370
C2410       C  0.00074228  0.20844096  0.87611402    -0.02380
C2411       C  0.51959393  0.24205081  0.87919758     0.07550
C2412       C  0.54574599  0.25754827  0.86494902    -0.02570
Br2413     Br  0.58783591  0.28778195  0.87377818    -0.01120
Br2414     Br  0.57628024  0.26858948  0.82412106    -0.01190
Br2415     Br  0.97455199  0.17877812  0.89766562    -0.01150
Br2416     Br  0.98351508  0.14885930  0.85569782    -0.01140
C2417       C  0.66021631  0.21392811  0.86879059    -0.02260
C2418       C  0.66497803  0.19948765  0.85110216     0.07420
C2419       C  0.69237108  0.19784611  0.85168327    -0.02370
C2420       C  0.71826453  0.21964791  0.86373137    -0.02380
C2421       C  0.71406395  0.23473442  0.88168172     0.07550
C2422       C  0.68189922  0.22444041  0.88563829    -0.02570
Br2423     Br  0.66316089  0.21593835  0.91342695    -0.01120
Br2424     Br  0.62686845  0.22292196  0.87123435    -0.01190
Br2425     Br  0.75639260  0.22235803  0.85581427    -0.01150
Br2426     Br  0.69180737  0.16092274  0.84104416    -0.01140
C2427       C  0.99442999  0.31499361  0.86005522    -0.02260
C2428       C  0.52251928  0.32948513  0.84861044     0.07420
C2429       C  0.54785738  0.32809561  0.85710411    -0.02370
C2430       C  0.54551843  0.31499211  0.87712382    -0.02380
C2431       C  0.51612292  0.29172445  0.88518136     0.07550
C2432       C  0.99115931  0.29677662  0.87854365    -0.02570
Br2433     Br  0.95712902  0.28994023  0.89666815    -0.01120
Br2434     Br  0.96123232  0.32214320  0.85129547    -0.01190
Br2435     Br  0.57905950  0.34316328  0.89563616    -0.01150
Br2436     Br  0.58741615  0.34671238  0.84268629    -0.01140
C2437       C  0.67740498  0.49903221  0.86246211    -0.02260
C2438       C  0.66787589  0.47467054  0.84788263     0.07420
C2439       C  0.68214078  0.45663724  0.84832410    -0.02370
C2440       C  0.70339770  0.46066229  0.86461992    -0.02380
C2441       C  0.71615795  0.48746087  0.87880861     0.07550
C2442       C  0.70369957  0.50813800  0.87563861    -0.02570
Br2443     Br  0.72277778  0.55176973  0.88398981    -0.01120
Br2444     Br  0.65356599  0.51987270  0.86456391    -0.01190
Br2445     Br  0.71065404  0.42586122  0.86755939    -0.01150
Br2446     Br  0.67268112  0.42633361  0.82608021    -0.01140
C2447       C  0.81035579  0.31428137  0.85573837    -0.02260
C2448       C  0.79451496  0.32787901  0.84587830     0.07420
C2449       C  0.76706721  0.32295163  0.85517608    -0.02370
C2450       C  0.76074093  0.31119196  0.87569361    -0.02380
C2451       C  0.76694187  0.28735840  0.88169442     0.07550
C2452       C  0.79578800  0.29193757  0.87238767    -0.02570
Br2453     Br  0.81900802  0.27131480  0.87999251    -0.01120
Br2454     Br  0.85272476  0.32807331  0.84730938    -0.01190
Br2455     Br  0.77390034  0.34577849  0.89495098    -0.01150
Br2456     Br  0.74190060  0.33853904  0.84284937    -0.01140
C2457       C  0.78369189  0.99415536  0.84193742    -0.02260
C2458       C  0.79848283  0.47708984  0.84612927     0.07420
C2459       C  0.79960898  0.46800829  0.86705708    -0.02370
C2460       C  0.78011211  0.46935465  0.88249494    -0.02380
C2461       C  0.76727263  0.48976996  0.87935946     0.07550
C2462       C  0.77320184  0.00460094  0.85872104    -0.02570
Br2463     Br  0.76929120  0.04059908  0.85200790    -0.01120
Br2464     Br  0.77516754  0.00140122  0.81308482    -0.01190
Br2465     Br  0.76799921  0.43585792  0.90302739    -0.01150
Br2466     Br  0.82791408  0.45333733  0.87466054    -0.01140
C2467       C  0.91455525  0.05456565  0.77210067    -0.02260
C2468       C  0.90370882  0.05226601  0.75028106     0.07420
C2469       C  0.87654284  0.02263828  0.74509738    -0.02370
C2470       C  0.85821352  0.00137008  0.76113242    -0.02380
C2471       C  0.86676742  0.00801073  0.78250882     0.07550
C2472       C  0.89460753  0.03482194  0.78798946    -0.02570
Br2473     Br  0.90734759  0.04232155  0.81756696    -0.01120
Br2474     Br  0.95797396  0.07284532  0.78104016    -0.01190
Br2475     Br  0.81893878  0.96411293  0.75406496    -0.01150
Br2476     Br  0.86094046  0.00966191  0.71677624    -0.01140
C2477       C  0.98347155  0.12060652  0.74202614    -0.02260
C2478       C  0.95032412  0.10800725  0.74480309     0.07420
C2479       C  0.94305284  0.12325483  0.76142218    -0.02370
C2480       C  0.96403564  0.13873214  0.77804934    -0.02380
C2481       C  0.99587320  0.15007285  0.77534138     0.07550
C2482       C  0.00538118  0.14430420  0.75579929    -0.02570
Br2483     Br  0.54855062  0.17004517  0.74755888    -0.01120
Br2484     Br  0.50282917  0.10814338  0.72097458    -0.01190
Br2485     Br  0.94643744  0.13649523  0.80573390    -0.01150
Br2486     Br  0.90592029  0.12573037  0.76395101    -0.01140
C2487       C  0.90611566  0.13647971  0.69858881    -0.02260
C2488       C  0.87412679  0.12504992  0.70078474     0.07420
C2489       C  0.85675868  0.09923933  0.71419540    -0.02370
C2490       C  0.87107405  0.08513891  0.72591574    -0.02380
C2491       C  0.90346672  0.09433802  0.72238432     0.07550
C2492       C  0.92033573  0.12115260  0.70849306    -0.02570
Br2493     Br  0.96201670  0.13542591  0.69873440    -0.01120
Br2494     Br  0.93050282  0.17127415  0.67938106    -0.01190
Br2495     Br  0.84515741  0.05904891  0.74897407    -0.01150
Br2496     Br  0.81268098  0.08406684  0.71730425    -0.01140
C2497       C  0.65007418  0.03373511  0.75016389    -0.02260
C2498       C  0.65012067  0.06202505  0.75562544     0.07420
C2499       C  0.64702374  0.06566372  0.77803947    -0.02370
C2500       C  0.63504787  0.03980012  0.79183926    -0.02380
C2501       C  0.63334190  0.01202470  0.78566514     0.07550
C2502       C  0.64210323  0.00945702  0.76517597    -0.02570
Br2503     Br  0.64199904  0.47150982  0.75775686    -0.01120
Br2504     Br  0.66054431  0.02565513  0.72283273    -0.01190
Br2505     Br  0.62129474  0.04260264  0.81980129    -0.01150
Br2506     Br  0.66868311  0.10494140  0.79334172    -0.01140
C2507       C  0.62038113  0.10572673  0.75892506    -0.02260
C2508       C  0.64988283  0.11409568  0.74949758     0.07420
C2509       C  0.67398603  0.14649444  0.75272607    -0.02370
C2510       C  0.66854239  0.16630387  0.76612350    -0.02380
C2511       C  0.64157719  0.15371090  0.77860401     0.07550
C2512       C  0.61888654  0.12224885  0.77596678    -0.02570
Br2513     Br  0.58558842  0.09962604  0.79605117    -0.01120
Br2514     Br  0.58023272  0.08562881  0.74480043    -0.01190
Br2515     Br  0.69779658  0.21079541  0.76761147    -0.01150
Br2516     Br  0.71383979  0.16711938  0.73891581    -0.01140
C2517       C  0.68608212  0.09837617  0.70255390    -0.02260
C2518       C  0.68494494  0.09771240  0.72541883     0.07420
C2519       C  0.71458898  0.10643035  0.73536199    -0.02370
C2520       C  0.74257504  0.12086582  0.72344570    -0.02380
C2521       C  0.74216129  0.12841020  0.70205134     0.07550
C2522       C  0.71357165  0.11873543  0.69210346    -0.02570
Br2523     Br  0.71077951  0.13039237  0.66319730    -0.01120
Br2524     Br  0.65743368  0.06516126  0.68355667    -0.01190
Br2525     Br  0.78237210  0.13369394  0.73672661    -0.01150
Br2526     Br  0.71992203  0.09890593  0.76459850    -0.01140
C2527       C  0.94146679  0.35494178  0.77516303    -0.02260
C2528       C  0.94094736  0.34924510  0.75255938     0.07420
C2529       C  0.96439660  0.34196543  0.74602250    -0.02370
C2530       C  0.98808826  0.34499589  0.76031571    -0.02380
C2531       C  0.99104374  0.35799368  0.78037867     0.07550
C2532       C  0.96861102  0.36471612  0.78710150    -0.02570
Br2533     Br  0.97458857  0.38681270  0.81353779    -0.01120
Br2534     Br  0.90623317  0.34096693  0.79411851    -0.01190
Br2535     Br  0.51868136  0.33420540  0.75213040    -0.01150
Br2536     Br  0.96855195  0.33118287  0.71742705    -0.01140
C2537       C  0.85866108  0.33278492  0.74779317    -0.02260
C2538       C  0.89189214  0.35464266  0.74866340     0.07420
C2539       C  0.90176412  0.38231972  0.76127795    -0.02370
C2540       C  0.88138813  0.38389285  0.77573004    -0.02380
C2541       C  0.85004911  0.35991207  0.77662340     0.07550
C2542       C  0.83864395  0.33485458  0.76248265    -0.02570
Br2543     Br  0.79456018  0.30434130  0.76247716    -0.01120
Br2544     Br  0.83689403  0.30664189  0.72345005    -0.01190
Br2545     Br  0.89819129  0.41649575  0.79714382    -0.01150
Br2546     Br  0.94354411  0.41847708  0.76098179    -0.01140
C2547       C  0.90416471  0.31692660  0.70010577    -0.02260
C2548       C  0.90183280  0.31890159  0.72284397     0.07420
C2549       C  0.88623083  0.28866353  0.73350973    -0.02370
C2550       C  0.87121400  0.26020878  0.72202345    -0.02380
C2551       C  0.87712059  0.26013224  0.70057476     0.07550
C2552       C  0.89701820  0.28852051  0.69058940    -0.02570
Br2553     Br  0.91633938  0.28909948  0.66403970    -0.01120
Br2554     Br  0.91256766  0.34816428  0.67878411    -0.01190
Br2555     Br  0.84371105  0.22049489  0.73563259    -0.01150
Br2556     Br  0.88143089  0.28285751  0.76345387    -0.01140
C2557       C  0.86162181  0.45781296  0.37177764    -0.02260
C2558       C  0.85575003  0.43427661  0.38780536     0.07420
C2559       C  0.88031916  0.42658138  0.38995969    -0.02370
C2560       C  0.90965398  0.44537487  0.38035660    -0.02380
C2561       C  0.91409533  0.46761855  0.36490653     0.07550
C2562       C  0.89006895  0.47374985  0.36064118    -0.02570
Br2563     Br  0.89624077  0.50449912  0.33899415    -0.01120
Br2564     Br  0.83319607  0.47225752  0.36485139    -0.01190
Br2565     Br  0.94484182  0.44072676  0.38825169    -0.01150
Br2566     Br  0.87562893  0.38702821  0.40000478    -0.01140
C2567       C  0.58635016  0.13080141  0.39096008    -0.02260
C2568       C  0.56907222  0.14576116  0.39610163     0.07420
C2569       C  0.53563460  0.12496945  0.39250379    -0.02370
C2570       C  0.52431342  0.09849786  0.37888850    -0.02380
C2571       C  0.54489404  0.09127832  0.36865024     0.07550
C2572       C  0.57640455  0.10831048  0.37472717    -0.02570
Br2573     Br  0.60675673  0.09999456  0.36251168    -0.01120
Br2574     Br  0.60784557  0.12114869  0.41276619    -0.01190
Br2575     Br  0.97972413  0.07140259  0.37449513    -0.01150
Br2576     Br  0.50188716  0.12889219  0.40473266    -0.01140
C2577       C  0.57899113  0.46133618  0.39242439    -0.02260
C2578       C  0.57198991  0.42926060  0.38917927     0.07420
C2579       C  0.54997716  0.41295731  0.37211761    -0.02370
C2580       C  0.53587002  0.42694741  0.36023562    -0.02380
C2581       C  0.54088318  0.45655254  0.36543501     0.07550
C2582       C  0.56152467  0.47305182  0.38197723    -0.02570
Br2583     Br  0.56585465  0.01282096  0.38991442    -0.01120
Br2584     Br  0.61595147  0.49456389  0.40629171    -0.01190
Br2585     Br  0.50983253  0.40565026  0.33587584    -0.01150
Br2586     Br  0.53506429  0.36991395  0.36476208    -0.01140
C2587       C  0.64154779  0.20241665  0.45508884    -0.02260
C2588       C  0.66561534  0.19894968  0.44707794     0.07420
C2589       C  0.66712261  0.19494760  0.42525932    -0.02370
C2590       C  0.64287320  0.19135638  0.41152017    -0.02380
C2591       C  0.61558237  0.19057815  0.41979231     0.07550
C2592       C  0.61899270  0.20193942  0.44143946    -0.02570
Br2593     Br  0.60296150  0.22807098  0.45220989    -0.01120
Br2594     Br  0.64110027  0.21107351  0.48502973    -0.01190
Br2595     Br  0.64962473  0.18886614  0.38146012    -0.01150
Br2596     Br  0.70188675  0.19238589  0.41448407    -0.01140
C2597       C  0.83760927  0.37279086  0.44729970    -0.02260
C2598       C  0.80922749  0.34406365  0.44906596     0.07420
C2599       C  0.78601394  0.33873070  0.43402795    -0.02370
C2600       C  0.79350242  0.35701998  0.41535064    -0.02380
C2601       C  0.81940554  0.38897730  0.41529409     0.07550
C2602       C  0.84001498  0.39646473  0.43339644    -0.02570
Br2603     Br  0.87466336  0.43790807  0.43938625    -0.01120
Br2604     Br  0.87542515  0.38001141  0.46117178    -0.01190
Br2605     Br  0.76429583  0.33465151  0.39279280    -0.01150
Br2606     Br  0.74227177  0.31104577  0.44063103    -0.01140
C2607       C  0.51695967  0.34794168  0.43488711    -0.02260
C2608       C  0.53222136  0.33803822  0.44889028     0.07420
C2609       C  0.56432813  0.35103020  0.44743796    -0.02370
C2610       C  0.58111714  0.37212907  0.43102057    -0.02380
C2611       C  0.56694479  0.38503620  0.41699990     0.07550
C2612       C  0.53393367  0.37296182  0.42048535    -0.02570
Br2613     Br  0.50952005  0.39102291  0.41029156    -0.01120
Br2614     Br  0.97190309  0.32669128  0.43603668    -0.01190
Br2615     Br  0.62308679  0.37962348  0.42800008    -0.01150
Br2616     Br  0.58561843  0.34012255  0.46877501    -0.01140
C2617       C  0.52485435  0.20109502  0.42924861    -0.02260
C2618       C  0.51943309  0.18623155  0.44907071     0.07420
C2619       C  0.53279855  0.16772422  0.45362777    -0.02370
C2620       C  0.55037088  0.16346130  0.43818769    -0.02380
C2621       C  0.56121535  0.18337613  0.41958066     0.07550
C2622       C  0.54896637  0.20401726  0.41637609    -0.02570
Br2623     Br  0.56714771  0.24204278  0.39958887    -0.01120
Br2624     Br  0.49912566  0.21788553  0.41958066    -0.01190
Br2625     Br  0.56001412  0.13091028  0.44440664    -0.01150
Br2626     Br  0.53162944  0.15161002  0.48187212    -0.01140
C2627       C  0.79048519  0.43766588  0.44941456    -0.02260
C2628       C  0.80903786  0.46998134  0.45156052     0.07420
C2629       C  0.83246179  0.98696018  0.43685210    -0.02370
C2630       C  0.83952889  0.47129258  0.42108324    -0.02380
C2631       C  0.81814270  0.43816604  0.41671634     0.07550
C2632       C  0.79185631  0.42298726  0.43101469    -0.02570
Br2633     Br  0.75317519  0.38439498  0.42548709    -0.01120
Br2634     Br  0.76262382  0.41300105  0.47215169    -0.01190
Br2635     Br  0.88104455  0.49768010  0.40995515    -0.01150
Br2636     Br  0.85524111  0.03223281  0.43891618    -0.01140
C2637       C  0.64982438  0.44989560  0.41482879    -0.02260
C2638       C  0.61634313  0.43666503  0.41700583     0.07420
C2639       C  0.60732192  0.44197075  0.43752547    -0.02370
C2640       C  0.62739296  0.44986718  0.45510829    -0.02380
C2641       C  0.65962849  0.46418179  0.45220190     0.07550
C2642       C  0.67045871  0.46772901  0.43139675    -0.02570
Br2643     Br  0.71381007  0.49747773  0.42544602    -0.01120
Br2644     Br  0.67184113  0.44049272  0.39393556    -0.01190
Br2645     Br  0.60936263  0.43753100  0.48295169    -0.01150
Br2646     Br  0.56806318  0.43940881  0.44315966    -0.01140
C2647       C  0.57738926  0.03082688  0.70528215    -0.02260
C2648       C  0.58028088  0.05017835  0.68810101     0.07420
C2649       C  0.60302038  0.08189128  0.68851173    -0.02370
C2650       C  0.62452242  0.09397382  0.70537697    -0.02380
C2651       C  0.62533394  0.07353390  0.72167670     0.07550
C2652       C  0.59858123  0.04228743  0.72243429    -0.02570
Br2653     Br  0.58221352  0.01792052  0.74831729    -0.01120
Br2654     Br  0.54152032  0.48932032  0.70648724    -0.01190
Br2655     Br  0.65290662  0.13877704  0.70409342    -0.01150
Br2656     Br  0.60718004  0.10817063  0.66429945    -0.01140
C2657       C  0.96113169  0.03705048  0.70293243    -0.02260
C2658       C  0.95445778  0.03891642  0.68177659     0.07420
C2659       C  0.93173035  0.04627364  0.67659444    -0.02370
C2660       C  0.92074678  0.05897357  0.69197023    -0.02380
C2661       C  0.93073222  0.06176934  0.71423664     0.07550
C2662       C  0.94620146  0.04418520  0.71892367    -0.02570
Br2663     Br  0.94355280  0.02233548  0.74484283    -0.01120
Br2664     Br  0.99051737  0.02356859  0.70985306    -0.01190
Br2665     Br  0.88775672  0.06495358  0.68016730    -0.01150
Br2666     Br  0.91305147  0.03441863  0.64856374    -0.01140
C2667       C  0.93135593  0.41814769  0.69349045    -0.02260
C2668       C  0.96046825  0.42540775  0.68513649     0.07420
C2669       C  0.97691074  0.41300674  0.69577408    -0.02370
C2670       C  0.96600277  0.39654457  0.71502539    -0.02380
C2671       C  0.93367958  0.38156809  0.72049813     0.07550
C2672       C  0.91727598  0.39560270  0.71004532    -0.02570
Br2673     Br  0.87483156  0.38528777  0.71535413    -0.01120
Br2674     Br  0.90887691  0.43736958  0.68138300    -0.01190
Br2675     Br  0.99922644  0.41084756  0.73577532    -0.01150
Br2676     Br  0.51395782  0.41602832  0.68407863    -0.01140
C2677       C  0.71852443  0.09088924  0.58884010    -0.02260
C2678       C  0.70946267  0.10850240  0.57557280     0.07420
C2679       C  0.72785210  0.14191159  0.57966588    -0.02370
C2680       C  0.74408471  0.15351940  0.59923503    -0.02380
C2681       C  0.74699512  0.13339970  0.61395358     0.07550
C2682       C  0.73122858  0.10120042  0.60906157    -0.02570
Br2683     Br  0.72620367  0.06902348  0.62905298    -0.01120
Br2684     Br  0.73173332  0.06317317  0.57750608    -0.01190
Br2685     Br  0.76092328  0.19746644  0.60577947    -0.01150
Br2686     Br  0.74435339  0.17427684  0.55789823    -0.01140
C2687       C  0.67985945  0.10835705  0.51941479    -0.02260
C2688       C  0.67937617  0.11358169  0.54181431     0.07420
C2689       C  0.67754533  0.14078322  0.54697659    -0.02370
C2690       C  0.68452619  0.16422388  0.53131424    -0.02380
C2691       C  0.69446708  0.16137906  0.51108442     0.07550
C2692       C  0.69245325  0.13340219  0.50535854    -0.02570
Br2693     Br  0.70568509  0.12851679  0.47765476    -0.01120
Br2694     Br  0.65439574  0.06852225  0.50526633    -0.01190
Br2695     Br  0.68285303  0.20127283  0.53781983    -0.01150
Br2696     Br  0.66754450  0.14808343  0.57515010    -0.01140
C2697       C  0.71595166  0.05812940  0.51897946    -0.02260
C2698       C  0.69469705  0.02610531  0.51876772     0.07420
C2699       C  0.66921785  0.01338115  0.53234651    -0.02370
C2700       C  0.66206610  0.03318671  0.54372942    -0.02380
C2701       C  0.68520477  0.06597559  0.54635052     0.07550
C2702       C  0.71321796  0.07722429  0.53396498    -0.02570
Br2703     Br  0.74895534  0.11879432  0.53544385    -0.01120
Br2704     Br  0.74743255  0.07631121  0.49713835    -0.01190
Br2705     Br  0.61770705  0.01419665  0.54857039    -0.01150
Br2706     Br  0.64325869  0.46841202  0.53450709    -0.01140
C2707       C  0.59608706  0.06732253  0.58127206    -0.02260
C2708       C  0.59511821  0.05233857  0.60032209     0.07420
C2709       C  0.61958379  0.04729871  0.60542283    -0.02370
C2710       C  0.64407020  0.05533270  0.59110252    -0.02380
C2711       C  0.64822975  0.07420517  0.57247643     0.07550
C2712       C  0.62097256  0.07648479  0.56691315    -0.02570
Br2713     Br  0.61042680  0.08341561  0.53851237    -0.01120
Br2714     Br  0.56171043  0.07380523  0.57456138    -0.01190
Br2715     Br  0.66040182  0.02755203  0.59400464    -0.01150
Br2716     Br  0.61908006  0.52826149  0.63245990    -0.01140
C2717       C  0.87119945  0.08342833  0.60158187    -0.02260
C2718       C  0.89124181  0.10403317  0.58516723     0.07420
C2719       C  0.89785617  0.13589701  0.58619782    -0.02370
C2720       C  0.87948781  0.14350413  0.59853604    -0.02380
C2721       C  0.86107228  0.12353151  0.61464349     0.07550
C2722       C  0.85727459  0.09365268  0.61643412    -0.02570
Br2723     Br  0.83272244  0.06681030  0.63950058    -0.01120
Br2724     Br  0.86314233  0.04159390  0.60574750    -0.01190
Br2725     Br  0.87788000  0.18080461  0.59231271    -0.01150
Br2726     Br  0.93579950  0.17264105  0.57676851    -0.01140
C2727       C  0.90638396  0.12547222  0.53390909    -0.02260
C2728       C  0.92282763  0.11778583  0.54959764     0.07420
C2729       C  0.95652128  0.13563986  0.54743784    -0.02370
C2730       C  0.97047917  0.15433448  0.52927077    -0.02380
C2731       C  0.95219572  0.15499130  0.51251281     0.07550
C2732       C  0.92005532  0.13919219  0.51446685    -0.02570
Br2733     Br  0.89513788  0.14068893  0.49129491    -0.01120
Br2734     Br  0.87494621  0.13574067  0.54079326    -0.01190
Br2735     Br  0.51532723  0.18162669  0.52762880    -0.01150
Br2736     Br  0.98633933  0.14294828  0.56989315    -0.01140
C2737       C  0.85051498  0.06621854  0.54806140    -0.02260
C2738       C  0.87486944  0.06206964  0.55640739     0.07420
C2739       C  0.87048698  0.03155011  0.55142426    -0.02370
C2740       C  0.85135086  0.01416274  0.53385766    -0.02380
C2741       C  0.83532252  0.02568439  0.52178660     0.07550
C2742       C  0.83620078  0.05284402  0.52878255    -0.02570
Br2743     Br  0.81601100  0.07133705  0.51304951    -0.01120
Br2744     Br  0.82330210  0.07265121  0.56623068    -0.01190
Br2745     Br  0.84553812  0.47358491  0.52686611    -0.01150
Br2746     Br  0.88177748  0.00750100  0.57007518    -0.01140
C2747       C  0.94180650  0.06788665  0.56567724    -0.02260
C2748       C  0.92816361  0.08210052  0.57815071     0.07420
C2749       C  0.94079501  0.09059965  0.59954309    -0.02370
C2750       C  0.96001403  0.07978353  0.60811562    -0.02380
C2751       C  0.96474503  0.05809421  0.59727724     0.07550
C2752       C  0.95796716  0.05426020  0.57556775    -0.02570
Br2753     Br  0.97248422  0.03162840  0.55932145    -0.01120
Br2754     Br  0.93895361  0.06589882  0.53498361    -0.01190
Br2755     Br  0.98465889  0.09879620  0.63342523    -0.01150
Br2756     Br  0.94079386  0.12293304  0.61688981    -0.01140
C2757       C  0.88480787  0.30376457  0.59883693    -0.02260
C2758       C  0.90316475  0.30138060  0.58213999     0.07420
C2759       C  0.91399820  0.27945468  0.58657821    -0.02370
C2760       C  0.90536684  0.26154438  0.60542489    -0.02380
C2761       C  0.88021053  0.25779608  0.61738214     0.07550
C2762       C  0.87208554  0.28115851  0.61530929    -0.02570
Br2763     Br  0.84521652  0.28448482  0.63592300    -0.01120
Br2764     Br  0.87191461  0.33473417  0.59895120    -0.01190
Br2765     Br  0.93364186  0.24931129  0.61791909    -0.01150
Br2766     Br  0.94385997  0.27326696  0.57073465    -0.01140
C2767       C  0.89292906  0.33414341  0.52650329    -0.02260
C2768       C  0.88590853  0.32073191  0.54757460     0.07420
C2769       C  0.85272882  0.30092899  0.55166965    -0.02370
C2770       C  0.83078204  0.30200850  0.53782473    -0.02380
C2771       C  0.83891544  0.31150198  0.51677393     0.07550
C2772       C  0.86983124  0.32383328  0.51096853    -0.02570
Br2773     Br  0.88044836  0.32005159  0.48231803    -0.01120
Br2774     Br  0.93220068  0.36878364  0.51718446    -0.01190
Br2775     Br  0.78876480  0.28758555  0.54706703    -0.01150
Br2776     Br  0.83255284  0.26450467  0.57007193    -0.01140
C2777       C  0.96897179  0.34313948  0.54294396    -0.02260
C2778       C  0.93618832  0.32086303  0.54682537     0.07420
C2779       C  0.92214926  0.29365192  0.53317495    -0.02370
C2780       C  0.93893185  0.29004340  0.51687611    -0.02380
C2781       C  0.97115120  0.30966295  0.51572553     0.07550
C2782       C  0.98624795  0.33535727  0.52925353    -0.02570
Br2783     Br  0.53128742  0.36031976  0.52849700    -0.01120
Br2784     Br  0.99217743  0.38712203  0.55091000    -0.01190
Br2785     Br  0.91744418  0.25791543  0.49558376    -0.01150
Br2786     Br  0.88097880  0.25772256  0.53729664    -0.01140
C2787       C  0.95306629  0.36562855  0.59052217    -0.02260
C2788       C  0.93130643  0.35947038  0.57337774     0.07420
C2789       C  0.92498682  0.38465452  0.56902435    -0.02370
C2790       C  0.94339621  0.41442889  0.57848493    -0.02380
C2791       C  0.96167855  0.41809064  0.59652832     0.07550
C2792       C  0.96412143  0.39227398  0.60331067    -0.02570
Br2793     Br  0.48003623  0.39098565  0.63123398    -0.01120
Br2794     Br  0.97331698  0.34175686  0.59615564    -0.01190
Br2795     Br  0.94291549  0.45026689  0.56651693    -0.01150
Br2796     Br  0.88854572  0.38117612  0.55474534    -0.01140
C2797       C  0.63213657  0.40970184  0.34953653    -0.02260
C2798       C  0.62962311  0.38029645  0.35140632     0.07420
C2799       C  0.61277893  0.36057819  0.36810753    -0.02370
C2800       C  0.59538439  0.36818023  0.38155933    -0.02380
C2801       C  0.60154704  0.40017408  0.38270265     0.07550
C2802       C  0.61876614  0.41993648  0.36491910    -0.02570
Br2803     Br  0.62921664  0.46307874  0.36157908    -0.01120
Br2804     Br  0.65576491  0.43684534  0.32620496    -0.01190
Br2805     Br  0.55958160  0.33031946  0.39284467    -0.01150
Br2806     Br  0.61453693  0.32285124  0.37310370    -0.01140
C2807       C  0.62722431  0.23670321  0.38703709    -0.02260
C2808       C  0.59773919  0.20701897  0.38607535     0.07420
C2809       C  0.57996670  0.20302025  0.36688447    -0.02370
C2810       C  0.59209651  0.22516136  0.35009197    -0.02380
C2811       C  0.62244924  0.25060352  0.35098941     0.07550
C2812       C  0.64051185  0.25520395  0.36892412    -0.02570
Br2813     Br  0.68338761  0.28939930  0.36925208    -0.01120
Br2814     Br  0.64876918  0.25983709  0.41221000    -0.01190
Br2815     Br  0.56695271  0.22184195  0.32551689    -0.01150
Br2816     Br  0.53646591  0.17357059  0.36369486    -0.01140
C2817       C  0.77551975  0.37617416  0.34738075    -0.02260
C2818       C  0.74830904  0.37719211  0.34978219     0.07420
C2819       C  0.74609507  0.39411428  0.36650916    -0.02370
C2820       C  0.77152424  0.41126824  0.38032678    -0.02380
C2821       C  0.79689802  0.40474689  0.38147544     0.07550
C2822       C  0.79881367  0.38813288  0.36328515    -0.02570
Br2823     Br  0.82973011  0.37624984  0.35961094    -0.01120
Br2824     Br  0.78023974  0.35739239  0.32203149    -0.01190
Br2825     Br  0.77027324  0.44636259  0.39321094    -0.01150
Br2826     Br  0.70733123  0.39322779  0.37073086    -0.01140
C2827       C  0.52971383  0.43049150  0.24693396    -0.02260
C2828       C  0.56219944  0.43920349  0.24517251     0.07420
C2829       C  0.58304440  0.46244166  0.26036193    -0.02370
C2830       C  0.57275218  0.47619232  0.27532981    -0.02380
C2831       C  0.54119535  0.46654722  0.27697892     0.07550
C2832       C  0.51990033  0.44375340  0.26281822    -0.02570
Br2833     Br  0.97634078  0.43099215  0.26490408    -0.01120
Br2834     Br  0.49627659  0.40224337  0.22827820    -0.01190
Br2835     Br  0.60202877  0.00652560  0.29548802    -0.01150
Br2836     Br  0.62593584  0.47392395  0.26423698    -0.01140
C2837       C  0.59555164  0.38302864  0.27545721    -0.02260
C2838       C  0.61460035  0.37414020  0.26542530     0.07420
C2839       C  0.61644443  0.37543676  0.24345952    -0.02370
C2840       C  0.60199647  0.38900033  0.23147328    -0.02380
C2841       C  0.58805247  0.40504250  0.24158293     0.07550
C2842       C  0.58129366  0.39702673  0.26400230    -0.02570
Br2843     Br  0.54701671  0.39516079  0.28004579    -0.01120
Br2844     Br  0.58612054  0.37231622  0.30508985    -0.01190
Br2845     Br  0.60251167  0.38346902  0.20149061    -0.01150
Br2846     Br  0.63933420  0.35831859  0.23010582    -0.01140
C2847       C  0.54754884  0.13865240  0.26368771    -0.02260
C2848       C  0.57210604  0.14376474  0.25066067     0.07420
C2849       C  0.59282503  0.13633927  0.26176507    -0.02370
C2850       C  0.57999826  0.11065771  0.27634732    -0.02380
C2851       C  0.54763932  0.09524667  0.28131687     0.07550
C2852       C  0.53109715  0.10988050  0.27412963    -0.02570
Br2853     Br  0.98994641  0.09804930  0.28344242    -0.01120
Br2854     Br  0.56021834  0.17194482  0.28388402    -0.01190
Br2855     Br  0.60673516  0.09564644  0.28707058    -0.01150
Br2856     Br  0.63732821  0.15882101  0.25869931    -0.01140
C2857       C  0.49757474  0.15294259  0.20546344    -0.02260
C2858       C  0.50053959  0.14459471  0.18485483     0.07420
C2859       C  0.51995334  0.13255721  0.18144543    -0.02370
C2860       C  0.53556447  0.12890253  0.19857265    -0.02380
C2861       C  0.54263110  0.14772961  0.21709459     0.07550
C2862       C  0.51863222  0.15509779  0.22173833    -0.02570
Br2863     Br  0.51138192  0.16854946  0.24848847    -0.01120
Br2864     Br  0.96502130  0.16243805  0.21061827    -0.01190
Br2865     Br  0.53246213  0.08886100  0.19935053    -0.01150
Br2866     Br  0.52174243  0.11637505  0.15408901    -0.01140
C2867       C  0.62674225  0.21201781  0.23993701    -0.02260
C2868       C  0.59516611  0.19767125  0.23307228     0.07420
C2869       C  0.58180328  0.21720280  0.23562218    -0.02370
C2870       C  0.59389740  0.24127247  0.25101993    -0.02380
C2871       C  0.62178108  0.24930727  0.26208747     0.07550
C2872       C  0.63819457  0.23435209  0.25617015    -0.02570
Br2873     Br  0.67601699  0.24232401  0.27046575    -0.01120
Br2874     Br  0.65865497  0.21376518  0.22183960    -0.01190
Br2875     Br  0.57263314  0.26441913  0.25551071    -0.01150
Br2876     Br  0.55881747  0.22400121  0.21324985    -0.01140
C2877       C  0.90073078  0.46020514  0.24055679    -0.02260
C2878       C  0.86822955  0.43954296  0.24608296     0.07420
C2879       C  0.86236429  0.43806057  0.26863228    -0.02370
C2880       C  0.88642139  0.44553942  0.28346064    -0.02380
C2881       C  0.91752289  0.46344280  0.27754329     0.07550
C2882       C  0.92454965  0.47232136  0.25632697    -0.02570
Br2883     Br  0.96772045  0.50048788  0.24913710    -0.01120
Br2884     Br  0.91566172  0.47360225  0.21195878    -0.01190
Br2885     Br  0.87656510  0.43116196  0.31240430    -0.01150
Br2886     Br  0.82603009  0.43555247  0.28178155    -0.01140
C2887       C  0.85766675  0.46291086  0.17315461    -0.02260
C2888       C  0.86453593  0.49289558  0.17868314     0.07420
C2889       C  0.86084510  0.99922669  0.19989359    -0.02370
C2890       C  0.85248202  0.47610857  0.21560387    -0.02380
C2891       C  0.84552045  0.44489650  0.21043494     0.07550
C2892       C  0.84494881  0.43858697  0.18812898    -0.02570
Br2893     Br  0.81642586  0.39929533  0.17507505    -0.01120
Br2894     Br  0.86482819  0.45488967  0.14439783    -0.01190
Br2895     Br  0.84569936  0.98733194  0.24338662    -0.01150
Br2896     Br  0.86787274  0.04030489  0.20715781    -0.01140
C2897       C  0.75741572  0.40029956  0.24688408    -0.02260
C2898       C  0.74994867  0.37571050  0.26143435     0.07420
C2899       C  0.76949494  0.36266500  0.26211405    -0.02370
C2900       C  0.79958213  0.37905409  0.25357410    -0.02380
C2901       C  0.80800097  0.40417011  0.23863180     0.07550
C2902       C  0.78391835  0.41153381  0.23376718    -0.02570
Br2903     Br  0.78097420  0.43171564  0.20805511    -0.01120
Br2904     Br  0.73044198  0.41776280  0.24335311    -0.01190
Br2905     Br  0.82769814  0.36482836  0.26295039    -0.01150
Br2906     Br  0.75448267  0.31991850  0.27145354    -0.01140
C2907       C  0.88307730  0.38883931  0.19607915    -0.02260
C2908       C  0.86026302  0.35940061  0.18825226     0.07420
C2909       C  0.83090447  0.34476962  0.19805562    -0.02370
C2910       C  0.82242500  0.36270296  0.21085110    -0.02380
C2911       C  0.84635349  0.39357518  0.21823500     0.07550
C2912       C  0.87700125  0.40029117  0.21430216    -0.02570
Br2913     Br  0.90099482  0.39820137  0.23764358    -0.01120
Br2914     Br  0.92360611  0.41418679  0.18377499    -0.01190
Br2915     Br  0.77757296  0.34491687  0.21213137    -0.01150
Br2916     Br  0.80243347  0.30047844  0.19392989    -0.01140
C2917       C  0.50758759  0.35543499  0.19636645    -0.02260
C2918       C  0.50871087  0.37096473  0.17747706     0.07420
C2919       C  0.53348267  0.40072103  0.17358251    -0.02370
C2920       C  0.55837338  0.41392176  0.18776425    -0.02380
C2921       C  0.55428746  0.40368115  0.20974734     0.07550
C2922       C  0.52974453  0.37143975  0.21268153    -0.02570
Br2923     Br  0.52276631  0.34729374  0.23823973    -0.01120
Br2924     Br  0.97377075  0.31280462  0.20011970    -0.01190
Br2925     Br  0.59726398  0.43407410  0.17217737    -0.01150
Br2926     Br  0.53478393  0.42231811  0.14750677    -0.01140
C2927       C  0.63547255  0.46838021  0.21491924    -0.02260
C2928       C  0.60248878  0.45746287  0.21712208     0.07420
C2929       C  0.59197609  0.47673017  0.20641154    -0.02370
C2930       C  0.61045302  0.49953548  0.19135960    -0.02380
C2931       C  0.64139992  0.50770658  0.18845375     0.07550
C2932       C  0.65432707  0.49370143  0.20105880    -0.02570
Br2933     Br  0.69852307  0.00969491  0.19845127    -0.01120
Br2934     Br  0.65853776  0.45200894  0.22961672    -0.01190
Br2935     Br  0.59113529  0.51518310  0.17137521    -0.01150
Br2936     Br  0.55064355  0.47105655  0.20799160    -0.01140
C2937       C  0.60682033  0.13165323  0.21458372    -0.02260
C2938       C  0.59616555  0.15373243  0.21183807     0.07420
C2939       C  0.60291271  0.16881212  0.19133778    -0.02370
C2940       C  0.61720354  0.16097630  0.17542239    -0.02380
C2941       C  0.63319334  0.14533946  0.18073372     0.07550
C2942       C  0.63001997  0.13333140  0.20135839    -0.02570
Br2943     Br  0.65708724  0.11889438  0.21215496    -0.01120
Br2944     Br  0.58561490  0.09145676  0.22914469    -0.01190
Br2945     Br  0.61217440  0.16967906  0.14616609    -0.01150
Br2946     Br  0.59364683  0.20059510  0.18313705    -0.01140
C2947       C  0.69307257  0.41778621  0.92994613    -0.02260
C2948       C  0.71296396  0.42215382  0.94697925     0.07420
C2949       C  0.74141471  0.45008584  0.94852225    -0.02370
C2950       C  0.75177117  0.47216229  0.93174973    -0.02380
C2951       C  0.73179653  0.46838486  0.91369807     0.07550
C2952       C  0.70021363  0.44198271  0.91529380    -0.02570
Br2953     Br  0.66237645  0.43823652  0.90285853    -0.01120
Br2954     Br  0.65521114  0.37793983  0.92647594    -0.01190
Br2955     Br  0.79531567  0.50386117  0.93378864    -0.01150
Br2956     Br  0.76638449  0.45751780  0.97391367    -0.01140
C2957       C  0.58726030  0.27928560  0.93124520    -0.02260
C2958       C  0.58924336  0.30222534  0.94510703     0.07420
C2959       C  0.56560429  0.30957074  0.94513406    -0.02370
C2960       C  0.54103445  0.29564206  0.93034549    -0.02380
C2961       C  0.53958955  0.27385150  0.91477397     0.07550
C2962       C  0.56163921  0.26336557  0.91754181    -0.02570
Br2963     Br  0.55592660  0.22368582  0.90742274    -0.01120
Br2964     Br  0.61973070  0.26876496  0.93095797    -0.01190
Br2965     Br  0.50999028  0.30755770  0.93290835    -0.01150
Br2966     Br  0.56597685  0.33788343  0.96636613    -0.01140
C2967       C  0.70579681  0.30431854  0.92585528    -0.02260
C2968       C  0.71162587  0.30085522  0.94701678     0.07420
C2969       C  0.72618156  0.28403634  0.95215368    -0.02370
C2970       C  0.72991320  0.26603793  0.93678105    -0.02380
C2971       C  0.72828599  0.27180778  0.91440600     0.07550
C2972       C  0.71248700  0.28912934  0.90968251    -0.02570
Br2973     Br  0.69478168  0.29072715  0.88248932    -0.01120
Br2974     Br  0.69256358  0.33397892  0.91914580    -0.01190
Br2975     Br  0.72518987  0.22770048  0.94883720    -0.01150
Br2976     Br  0.74178354  0.28604338  0.98050052    -0.01140
C2977       C  0.78492823  0.04286846  0.03502548    -0.02260
C2978       C  0.76510213  0.04379593  0.05134425     0.07420
C2979       C  0.75381975  0.06542165  0.04685171    -0.02370
C2980       C  0.76309938  0.08426960  0.02830731    -0.02380
C2981       C  0.78790860  0.08762143  0.01607974     0.07550
C2982       C  0.79741403  0.06567805  0.01869115    -0.02570
Br2983     Br  0.82612706  0.06544856  0.99827708    -0.01120
Br2984     Br  0.80032462  0.01401556  0.03497671    -0.01190
Br2985     Br  0.73840342  0.10209446  0.01786818    -0.01150
Br2986     Br  0.72260943  0.06990432  0.06244383    -0.01140
C2987       C  0.77273078  0.00834558  0.10723826    -0.02260
C2988       C  0.78079988  0.02362149  0.08660779     0.07420
C2989       C  0.81393489  0.04423537  0.08350816    -0.02370
C2990       C  0.83533670  0.04254056  0.09736664    -0.02380
C2991       C  0.82654244  0.03123933  0.11809832     0.07550
C2992       C  0.79510958  0.01656526  0.12334136    -0.02570
Br2993     Br  0.78240085  0.50845214  0.15261859    -0.01120
Br2994     Br  0.73336077  0.47199057  0.11426156    -0.01190
Br2995     Br  0.87675381  0.05535556  0.08740875    -0.01150
Br2996     Br  0.83463801  0.08121580  0.06573822    -0.01140
C2997       C  0.74384101  0.04921143  0.10012566    -0.02260
C2998       C  0.73041850  0.02234257  0.08613479     0.07420
C2999       C  0.69775456  0.99927507  0.08994804    -0.02370
C3000       C  0.68032565  0.00556861  0.10458224    -0.02380
C3001       C  0.69522086  0.03068063  0.11853822     0.07550
C3002       C  0.72711896  0.05139046  0.11699470    -0.02570
Br3003     Br  0.74814740  0.08334453  0.13851216    -0.01120
Br3004     Br  0.78411867  0.08643709  0.09604466    -0.01190
Br3005     Br  0.63550418  0.97923435  0.10641349    -0.01150
Br3006     Br  0.67500185  0.95590022  0.08060434    -0.01140
C3007       C  0.73445436  0.43480649  0.04900916    -0.02260
C3008       C  0.71106334  0.42845178  0.03405675     0.07420
C3009       C  0.70259081  0.45098397  0.03014465    -0.02370
C3010       C  0.71506977  0.47846310  0.04238257    -0.02380
C3011       C  0.73797932  0.48537381  0.05898281     0.07550
C3012       C  0.74784901  0.46230397  0.06151639    -0.02570
Br3013     Br  0.78287030  0.46652146  0.07838327    -0.01120
Br3014     Br  0.75062414  0.40659613  0.05069555    -0.01190
Br3015     Br  0.69540130  0.50291664  0.03682231    -0.01150
Br3016     Br  0.67552599  0.44560215  0.00617957    -0.01140
C3017       C  0.93678584  0.24837293  0.02207910    -0.02260
C3018       C  0.91272159  0.21699734  0.02107890     0.07420
C3019       C  0.91266839  0.19593139  0.03581917    -0.02370
C3020       C  0.93877272  0.20400430  0.04885760    -0.02380
C3021       C  0.96347295  0.23674266  0.05184654     0.07550
C3022       C  0.96211540  0.25802099  0.03656313    -0.02570
Br3023     Br  0.99754297  0.29759374  0.02898222    -0.01120
Br3024     Br  0.93591337  0.27820463  0.00231236    -0.01190
Br3025     Br  0.94079324  0.16642506  0.05589796    -0.01150
Br3026     Br  0.87534864  0.15537701  0.03858381    -0.01140
C3027       C  0.49525190  0.30236500  0.07968810    -0.02260
C3028       C  0.99318683  0.27353117  0.08591330     0.07420
C3029       C  0.99000927  0.26849807  0.10877368    -0.02370
C3030       C  0.97579718  0.28129010  0.12092183    -0.02380
C3031       C  0.97207826  0.30552447  0.11287131     0.07550
C3032       C  0.48089611  0.31537484  0.09187400    -0.02570
Br3033     Br  0.47858109  0.35062831  0.08097897    -0.01120
Br3034     Br  0.53470566  0.33574673  0.06940820    -0.01190
Br3035     Br  0.95984175  0.26449010  0.14883651    -0.01150
Br3036     Br  0.00829387  0.24923227  0.12638728    -0.01140
C3037       C  0.50332001  0.20458808  0.08587537    -0.02260
C3038       C  0.98398137  0.21849037  0.08334206     0.07420
C3039       C  0.95560376  0.20470592  0.09581269    -0.02370
C3040       C  0.94998120  0.18232870  0.11160218    -0.02380
C3041       C  0.97124145  0.17218751  0.11522966     0.07550
C3042       C  0.49683728  0.18206703  0.10194666    -0.02570
Br3043     Br  0.52276268  0.16358430  0.10597016    -0.01120
Br3044     Br  0.53746246  0.21178575  0.06784397    -0.01190
Br3045     Br  0.91440628  0.16788086  0.13011159    -0.01150
Br3046     Br  0.92385366  0.21678824  0.09317848    -0.01140
C3047       C  0.55399940  0.28401793  0.06536313    -0.02260
C3048       C  0.52389709  0.26174528  0.05646842     0.07420
C3049       C  0.52503075  0.25236290  0.03496654    -0.02370
C3050       C  0.55197564  0.26872144  0.02257721    -0.02380
C3051       C  0.57992020  0.29177920  0.03142709     0.07550
C3052       C  0.58110872  0.29921082  0.05273519    -0.02570
Br3053     Br  0.62095830  0.33063126  0.06433439    -0.01120
Br3054     Br  0.56237498  0.29269356  0.09493459    -0.01190
Br3055     Br  0.55083473  0.25945138  0.99279874    -0.01150
Br3056     Br  0.49418047  0.21370077  0.02196061    -0.01140
C3057       C  0.78432824  0.25363383  0.03053905    -0.02260
C3058       C  0.77057696  0.23589626  0.04972223     0.07420
C3059       C  0.76572549  0.20445297  0.04955263    -0.02370
C3060       C  0.78220047  0.19679468  0.03531692    -0.02380
C3061       C  0.79216896  0.21277171  0.01605309     0.07550
C3062       C  0.79104916  0.24025607  0.01328735    -0.02570
Br3063     Br  0.79822321  0.25970568  0.98573130    -0.01120
Br3064     Br  0.79867597  0.29754247  0.02689676    -0.01190
Br3065     Br  0.79424178  0.16692573  0.04382928    -0.01150
Br3066     Br  0.73218769  0.16700966  0.06275563    -0.01140
C3067       C  0.78015946  0.28945721  0.09998298    -0.02260
C3068       C  0.78685445  0.27512581  0.08249395     0.07420
C3069       C  0.81851513  0.28159099  0.08209907    -0.02370
C3070       C  0.83704008  0.29325084  0.10045798    -0.02380
C3071       C  0.83226998  0.31220304  0.11464537     0.07550
C3072       C  0.80446733  0.31260835  0.11236057    -0.02570
Br3073     Br  0.80026187  0.34677119  0.12316040    -0.01120
Br3074     Br  0.73937573  0.28105464  0.10794065    -0.01190
Br3075     Br  0.86249157  0.27528432  0.10829124    -0.01150
Br3076     Br  0.83939817  0.27283295  0.05986174    -0.01140
C3077       C  0.70507402  0.21148824  0.08819963    -0.02260
C3078       C  0.73810011  0.22386915  0.08491197     0.07420
C3079       C  0.75263821  0.21263200  0.09991970    -0.02370
C3080       C  0.73676246  0.19499631  0.11779539    -0.02380
C3081       C  0.70460001  0.18072860  0.11857209     0.07550
C3082       C  0.68870185  0.18679455  0.10264753    -0.02570
Br3083     Br  0.64413357  0.15969835  0.09989113    -0.01120
Br3084     Br  0.67947022  0.22836698  0.07832940    -0.01190
Br3085     Br  0.75876842  0.18841544  0.14093073    -0.01150
Br3086     Br  0.79149287  0.21380137  0.09570054    -0.01140
C3087       C  0.71842995  0.24733822  0.03979945    -0.02260
C3088       C  0.74171857  0.26496962  0.05579133     0.07420
C3089       C  0.74816512  0.29665440  0.05876991    -0.02370
C3090       C  0.72747316  0.30554709  0.05114833    -0.02380
C3091       C  0.70865223  0.29071153  0.03376409     0.07550
C3092       C  0.70320228  0.26059272  0.02841922    -0.02570
Br3093     Br  0.67285677  0.23526281  0.00674702    -0.01120
Br3094     Br  0.70355071  0.20369494  0.03379163    -0.01190
Br3095     Br  0.72031677  0.33342427  0.06775586    -0.01150
Br3096     Br  0.78764172  0.33392697  0.06560787    -0.01140
C3097       C  0.75928450  0.74997000  0.06799375    -0.02900
C3098       C  0.99177234  0.74792643  0.06911254    -0.03080
C3099       C  0.75356990  0.51872164  0.07060631    -0.02900
O3100       O  0.71187470  0.83747957  0.01884074    -0.82210
C3101       C  0.61291553  0.81420208  0.96206062     0.97140
O3102       O  0.61721613  0.79495237  0.97223217    -0.71330
O3103       O  0.66996489  0.79799052  0.96646158    -0.74920
Al3104     Al  0.64803974  0.79828988  0.99082596     1.48980
C3105       C  0.69896068  0.81133878  0.96398133     0.92400
O3106       O  0.71598064  0.88434375  0.96896688    -0.81140
O3107       O  0.66897375  0.88377924  0.01738203    -0.74700
Al3108     Al  0.71140990  0.86025435  0.99386390     1.90120
O3109       O  0.67857526  0.89440372  0.97461538    -0.73770
O3110       O  0.61546530  0.83259556  0.00922154    -0.73620
O3111       O  0.62742834  0.84268922  0.96688846    -0.79280
O3112       O  0.62292644  0.79308357  0.01474137    -0.77480
O3113       O  0.66958405  0.83998430  0.99245521    -1.13610
O3114       O  0.67382562  0.79180190  0.00896164    -0.72810
C3115       C  0.69728081  0.80777561  0.02027540     0.97910
C3116       C  0.70206921  0.89899959  0.96441491     0.94300
Al3117     Al  0.64949678  0.86140053  0.99216352     1.55560
O3118       O  0.71722329  0.83290799  0.97613275    -0.77430
C3119       C  0.60808356  0.80697201  0.01817916     0.98470
C3120       C  0.69788630  0.90001378  0.02056810     0.93350
O3121       O  0.71605918  0.89350349  0.01126587    -0.82750
C3122       C  0.65141239  0.63970917  0.16463563     0.02720
C3123       C  0.64793456  0.60990115  0.16269393    -0.13430
C3124       C  0.66708658  0.60479372  0.14916372     0.00220
C3125       C  0.68603013  0.62858492  0.13488778    -0.11960
C3126       C  0.68729525  0.65737891  0.13516291     0.02710
C3127       C  0.67184283  0.66366973  0.15095042    -0.11380
H3128       H  0.63069824  0.59086925  0.17222163     0.08300
H3129       H  0.70041844  0.62540957  0.12369289     0.05830
H3130       H  0.67513939  0.68695478  0.15211434     0.05680
C3131       C  0.65877868  0.02921792  0.17074529     0.02720
C3132       C  0.66170438  0.55879760  0.16980533    -0.13430
C3133       C  0.66791989  0.57523766  0.15053411     0.00220
C3134       C  0.67564751  0.56351616  0.13295797    -0.11960
C3135       C  0.67804412  0.53666112  0.13483619     0.02710
C3136       C  0.66803424  0.01858264  0.15335637    -0.11380
H3137       H  0.65640533  0.56747727  0.18384034     0.08300
H3138       H  0.68133162  0.57574215  0.11793515     0.05830
H3139       H  0.66763449  0.99653580  0.15423656     0.05680
C3140       C  0.48510787  0.85554246  0.16085471     0.02720
C3141       C  0.95863268  0.85807701  0.16099595    -0.13430
C3142       C  0.93540833  0.84326022  0.14548929     0.00220
C3143       C  0.94048396  0.82720746  0.12893270    -0.11960
C3144       C  0.96763822  0.82537765  0.12839582     0.02710
C3145       C  0.49003087  0.84000237  0.14441762    -0.11380
H3146       H  0.95665551  0.87193342  0.17332437     0.08300
H3147       H  0.92335286  0.81524526  0.11677492     0.05830
H3148       H  0.51104204  0.83862398  0.14438699     0.05680
C3149       C  0.85495490  0.82891385  0.13238589     0.02720
C3150       C  0.84557636  0.83376802  0.15227840    -0.13430
C3151       C  0.86657531  0.84544962  0.16938147     0.00220
C3152       C  0.89473587  0.84590187  0.16754877    -0.11960
C3153       C  0.90540506  0.84287365  0.14762222     0.02710
C3154       C  0.88639900  0.83813029  0.12990914    -0.11380
H3155       H  0.82211203  0.82846501  0.15470154     0.08300
H3156       H  0.90836549  0.84955156  0.18177075     0.05830
H3157       H  0.89517331  0.83884044  0.11422638     0.05680
C3158       C  0.84128362  0.92027651  0.22831350    -0.02900
C3159       C  0.57634220  0.66070017  0.22839911    -0.02900
C3160       C  0.57661821  0.92570848  0.22849358    -0.02900
O3161       O  0.61697920  0.77984428  0.28926186    -0.82210
C3162       C  0.72358817  0.86367426  0.33336352     0.97140
O3163       O  0.70753925  0.83435486  0.33086674    -0.71330
O3164       O  0.65671105  0.77952662  0.32332228    -0.74920
Al3165     Al  0.68473674  0.81374980  0.30594543     1.48980
C3166       C  0.63408242  0.77495914  0.33442366     0.92400
O3167       O  0.62084686  0.84256770  0.32559205    -0.81140
O3168       O  0.65669636  0.88067513  0.28646655    -0.74700
Al3169     Al  0.62294144  0.81365642  0.30713667     1.90120
O3170       O  0.66839697  0.88240666  0.32864122    -0.73770
O3171       O  0.70696743  0.87692901  0.27843831    -0.73620
O3172       O  0.71974006  0.88210482  0.32149099    -0.79280
O3173       O  0.71807090  0.84200394  0.28883704    -0.77480
O3174       O  0.66440790  0.83477362  0.30568123    -1.13610
O3175       O  0.66409748  0.79141691  0.28093184    -0.72810
C3176       C  0.63500022  0.77492629  0.27818540     0.97910
C3177       C  0.64041729  0.86786497  0.33437162     0.94300
Al3178     Al  0.68600613  0.87673139  0.30381054     1.55560
O3179       O  0.62167342  0.79133919  0.33178651    -0.77430
C3180       C  0.72318374  0.86413187  0.27662045     0.98470
C3181       C  0.63075268  0.86171133  0.27833868     0.93350
O3182       O  0.61732469  0.83293404  0.28265620    -0.82750
C3183       C  0.97772020  0.63950630  0.16817274     0.02720
C3184       C  0.48541003  0.65994457  0.15086185    -0.13430
C3185       C  0.96599305  0.65045701  0.13290041     0.00220
C3186       C  0.94010860  0.62031324  0.13204753    -0.11960
C3187       C  0.93100255  0.60067515  0.14987976     0.02710
C3188       C  0.94989644  0.61078404  0.16802903    -0.11380
H3189       H  0.50658923  0.68259306  0.15115782     0.08300
H3190       H  0.92668453  0.61285374  0.11749638     0.05830
H3191       H  0.94387794  0.59610625  0.18199610     0.05680
C3192       C  0.87065144  0.51631482  0.16193537     0.02720
C3193       C  0.84734193  0.51122301  0.14714778    -0.13430
C3194       C  0.85057978  0.53579680  0.13412845     0.00220
C3195       C  0.87691679  0.56544346  0.13657130    -0.11960
C3196       C  0.90197177  0.56982933  0.14938073     0.02710
C3197       C  0.89874413  0.54472585  0.16180517    -0.11380
H3198       H  0.82629394  0.98847586  0.14626788     0.08300
H3199       H  0.87790277  0.58492731  0.12797715     0.05830
H3200       H  0.91737393  0.54719252  0.17205141     0.05680
C3201       C  0.91411366  0.82562999  0.56259260    -0.02900
C3202       C  0.90472084  0.59161209  0.56764112    -0.02900
C3203       C  0.68021427  0.59046632  0.55911855    -0.02900
O3204       O  0.55127643  0.50899110  0.61640831    -0.82210
C3205       C  0.96853644  0.52953087  0.66515517     0.97140
O3206       O  0.99246961  0.55017120  0.65580236    -0.71330
O3207       O  0.54283996  0.55040129  0.66515196    -0.74920
Al3208     Al  0.52341480  0.54866654  0.63907861     1.48980
C3209       C  0.55845718  0.53783608  0.67007061     0.92400
O3210       O  0.00321211  0.96404916  0.66436220    -0.81140
O3211       O  0.96325854  0.96387340  0.61038076    -0.74700
Al3212     Al  0.52558456  0.98731033  0.63996116     1.90120
O3213       O  0.95668092  0.94942244  0.65272052    -0.73770
O3214       O  0.95828657  0.51456102  0.61785088    -0.73620
O3215       O  0.95622187  0.50115465  0.66028227    -0.79280
O3216       O  0.00589396  0.55322218  0.61311741    -0.77480
O3217       O  0.00391869  0.50691641  0.63783615    -1.13610
O3218       O  0.55927361  0.55597906  0.62312642    -0.72810
C3219       C  0.56687054  0.53837155  0.61383435     0.97910
C3220       C  0.97418860  0.94724180  0.66640201     0.94300
Al3221     Al  0.96241925  0.98438571  0.63533246     1.55560
O3222       O  0.55634389  0.51553412  0.65941582    -0.77430
C3223       C  0.97715424  0.54048976  0.60925563     0.98470
C3224       C  0.97586547  0.94732676  0.60954158     0.93350
O3225       O  0.99928357  0.95407056  0.62109148    -0.82750
C3226       C  0.68179239  0.97658831  0.47056898     0.02720
C3227       C  0.70726412  0.97156453  0.47256611    -0.13430
C3228       C  0.73011509  0.98639463  0.48873930     0.00220
C3229       C  0.72416313  0.00257731  0.50444955    -0.11960
C3230       C  0.69833111  0.00633792  0.50318928     0.02710
C3231       C  0.67826269  0.99484704  0.48580038    -0.11380
H3232       H  0.70938097  0.95681470  0.46104770     0.08300
H3233       H  0.74043278  0.51458506  0.51722476     0.05830
H3234       H  0.66000914  0.00049452  0.48408802     0.05680
C3235       C  0.81316911  0.50716099  0.50437219     0.02720
C3236       C  0.78169483  0.49859651  0.50604572    -0.13430
C3237       C  0.76134568  0.48814902  0.48832834     0.00220
C3238       C  0.77241971  0.48199867  0.46968945    -0.11960
C3239       C  0.80209630  0.48529076  0.46896985     0.02710
C3240       C  0.82304152  0.49947813  0.48588374    -0.11380
H3241       H  0.77412096  0.50184944  0.52123253     0.08300
H3242       H  0.75788866  0.97340279  0.45566489     0.05830
H3243       H  0.84657535  0.50385981  0.48481615     0.05680
C3244       C  0.96736143  0.67742924  0.49493981     0.02720
C3245       C  0.98007123  0.66964776  0.47820903    -0.13430
C3246       C  0.00284700  0.69331576  0.46553848     0.00220
C3247       C  0.01100941  0.72458816  0.46905293    -0.11960
C3248       C  0.99433133  0.73220221  0.48323196     0.02710
C3249       C  0.97288005  0.70805921  0.49664429    -0.11380
H3250       H  0.97362357  0.64545229  0.47600344     0.08300
H3251       H  0.53027981  0.74280571  0.46029926     0.05830
H3252       H  0.96052343  0.71241245  0.50877923     0.05680
C3253       C  0.51494713  0.81513130  0.46603091     0.02720
C3254       C  0.50248308  0.82356105  0.48268043    -0.13430
C3255       C  0.48864447  0.80318121  0.49979634     0.00220
C3256       C  0.48863997  0.77490938  0.50075747    -0.11960
C3257       C  0.49896560  0.76472253  0.48358268     0.02710
C3258       C  0.51197738  0.78536278  0.46610712    -0.11380
H3259       H  0.50325571  0.84581789  0.48220353     0.08300
H3260       H  0.97916325  0.76065051  0.51476071     0.05830
H3261       H  0.51983512  0.77878557  0.45228317     0.05680
C3262       C  0.81520938  0.80430797  0.50000959     0.02720
C3263       C  0.79218699  0.77326415  0.49650204    -0.13430
C3264       C  0.77300525  0.76483611  0.47843756     0.00220
C3265       C  0.78251685  0.78736769  0.46202008    -0.11960
C3266       C  0.80338792  0.81957472  0.46586739     0.02710
C3267       C  0.81797626  0.82764700  0.48591519    -0.11380
H3268       H  0.79012126  0.75610132  0.50801610     0.08300
H3269       H  0.77317691  0.78004980  0.44628869     0.05830
H3270       H  0.83269640  0.85178489  0.49044195     0.05680
C3271       C  0.70328577  0.68554466  0.49458298     0.02720
C3272       C  0.73326515  0.71172982  0.49400398    -0.13430
C3273       C  0.74242746  0.73420965  0.47748543     0.00220
C3274       C  0.72006906  0.72884611  0.46153453    -0.11960
C3275       C  0.69028886  0.70205269  0.46183774     0.02710
C3276       C  0.68232735  0.68031463  0.47818675    -0.11380
H3277       H  0.74877382  0.71381003  0.50676184     0.08300
H3278       H  0.72464761  0.74585422  0.44926216     0.05830
H3279       H  0.65925105  0.65970913  0.47854965     0.05680
C3280       C  0.58901685  0.91305496  0.40112468    -0.02900
C3281       C  0.58578416  0.68178638  0.40516034    -0.02900
C3282       C  0.82273672  0.91665974  0.39996011    -0.02900
O3283       O  0.51127873  0.56198927  0.34001639    -0.82210
C3284       C  0.53020705  0.97874661  0.29447704     0.97140
O3285       O  0.54439921  0.00770258  0.29875089    -0.71330
O3286       O  0.54953962  0.56213195  0.30830285    -0.74920
Al3287     Al  0.54258414  0.52656352  0.32466354     1.48980
C3288       C  0.53280005  0.56750368  0.29598213     0.92400
O3289       O  0.94859136  0.50046883  0.30371813    -0.81140
O3290       O  0.94692597  0.96090406  0.34147345    -0.74700
Al3291     Al  0.98195258  0.52838167  0.32199651     1.90120
O3292       O  0.95599877  0.96127396  0.29874354    -0.73770
O3293       O  0.49905443  0.96010040  0.34871409    -0.73620
O3294       O  0.00718987  0.95960898  0.30545463    -0.79280
O3295       O  0.54674246  0.49629214  0.34134157    -0.77480
O3296       O  0.50109331  0.50621711  0.32364474    -1.13610
O3297       O  0.54453434  0.54802560  0.35047613    -0.72810
C3298       C  0.53308215  0.56565055  0.35233882     0.97910
C3299       C  0.94216307  0.97582840  0.29402044     0.94300
Al3300     Al  0.97924339  0.96430320  0.32368055     1.55560
O3301       O  0.50365788  0.55018499  0.29693827    -0.77430
C3302       C  0.52797141  0.97199098  0.35142773     0.98470
C3303       C  0.94130319  0.98011372  0.35053259     0.93350
O3304       O  0.95734630  0.00907704  0.34652840    -0.82750
C3305       C  0.91699699  0.85108829  0.73591228    -0.02900
C3306       C  0.65324973  0.58708613  0.73817400    -0.02900
C3307       C  0.92203834  0.57871440  0.73270009    -0.02900
O3308       O  0.78579884  0.62882464  0.68694550    -0.82210
C3309       C  0.86435157  0.73091248  0.63273799     0.97140
O3310       O  0.84111251  0.72681170  0.64298254    -0.71330
O3311       O  0.78815264  0.67471535  0.63507910    -0.74920
Al3312     Al  0.81106350  0.69404972  0.66045777     1.48980
C3313       C  0.77005269  0.64577213  0.63220932     0.92400
O3314       O  0.82219073  0.62447070  0.63552802    -0.81140
O3315       O  0.87171419  0.66819841  0.68558338    -0.74700
Al3316     Al  0.80557414  0.62903470  0.66125684     1.90120
O3317       O  0.87114138  0.65867102  0.64246173    -0.73770
O3318       O  0.87811603  0.72319782  0.67789030    -0.73620
O3319       O  0.87404808  0.71211486  0.63551939    -0.79280
O3320       O  0.83232164  0.71655076  0.68542810    -0.77480
O3321       O  0.82901476  0.67074950  0.66083548    -1.13610
O3322       O  0.77692393  0.66654628  0.67797534    -0.72810
C3323       C  0.77046196  0.64258228  0.68892604     0.97910
C3324       C  0.85069588  0.63622118  0.63163556     0.94300
Al3325     Al  0.87011856  0.68889246  0.66046593     1.55560
O3326       O  0.77222382  0.62674870  0.64449721    -0.77430
C3327       C  0.86154926  0.73119946  0.68783650     0.98470
C3328       C  0.85881558  0.63894521  0.68772615     0.93350
O3329       O  0.83402476  0.62137241  0.67762599    -0.82750
C3330       C  0.81309223  0.96900042  0.82884355     0.02720
C3331       C  0.83345173  0.49214004  0.81472978    -0.13430
C3332       C  0.84803204  0.48483641  0.79894262     0.00220
C3333       C  0.84478904  0.95517262  0.79859792    -0.11960
C3334       C  0.82348291  0.93105473  0.81186890     0.02710
C3335       C  0.80684931  0.93812019  0.82649659    -0.11380
H3336       H  0.83798044  0.51588140  0.81595622     0.08300
H3337       H  0.85885969  0.95128551  0.78755167     0.05830
H3338       H  0.78946060  0.91994048  0.83647075     0.05680
C3339       C  0.82952361  0.86227988  0.79228666     0.02720
C3340       C  0.82665116  0.88891553  0.79206845    -0.13430
C3341       C  0.81950020  0.89913838  0.81069507     0.00220
C3342       C  0.81112799  0.87961540  0.82862471    -0.11960
C3343       C  0.80776090  0.84970279  0.82758597     0.02710
C3344       C  0.81787336  0.84147345  0.80942794    -0.11380
H3345       H  0.83326329  0.90306222  0.77783698     0.08300
H3346       H  0.80701947  0.88736602  0.84354837     0.05830
H3347       H  0.81802829  0.81971297  0.80897973     0.05680
C3348       C  0.62642497  0.48725602  0.80157926     0.02720
C3349       C  0.64918780  0.49196624  0.81661024    -0.13430
C3350       C  0.64365901  0.96885523  0.83162515     0.00220
C3351       C  0.61542976  0.94020271  0.83090241    -0.11960
C3352       C  0.59194600  0.93464797  0.81578323     0.02710
C3353       C  0.59779296  0.95906749  0.80143518    -0.11380
H3354       H  0.67129152  0.51377796  0.81664556     0.08300
H3355       H  0.61263449  0.92227635  0.84200589     0.05830
H3356       H  0.58048629  0.95668692  0.78998956     0.05680
C3357       C  0.51630204  0.86348645  0.79547394     0.02720
C3358       C  0.00990687  0.84203565  0.81208732    -0.13430
C3359       C  0.52813011  0.85149721  0.83058023     0.00220
C3360       C  0.55254589  0.88273529  0.83217332    -0.11960
C3361       C  0.56227988  0.90326883  0.81465256     0.02710
C3362       C  0.54337121  0.89316424  0.79625157    -0.11380
H3363       H  0.98970125  0.81873129  0.81110601     0.08300
H3364       H  0.56432957  0.89040955  0.84726576     0.05830
H3365       H  0.54840963  0.90839691  0.78270750     0.05680
C3366       C  0.63584668  0.67203504  0.79461575     0.02720
C3367       C  0.60717307  0.67071511  0.79461835    -0.13430
C3368       C  0.59458158  0.67378857  0.81358186     0.00220
C3369       C  0.61190545  0.67863398  0.83238901    -0.11960
C3370       C  0.64365549  0.68743003  0.83187746     0.02710
C3371       C  0.65531863  0.68442365  0.81228149    -0.11380
H3372       H  0.59390043  0.66471224  0.78002516     0.08300
H3373       H  0.60013046  0.67490719  0.84718392     0.05830
H3374       H  0.67908789  0.69003016  0.81077903     0.05680
C3375       C  0.53405790  0.69647130  0.82552898     0.02720
C3376       C  0.01604190  0.68630323  0.80705042    -0.13430
C3377       C  0.01858891  0.66559162  0.79323624     0.00220
C3378       C  0.54215564  0.65840003  0.79723864    -0.11960
C3379       C  0.56443531  0.67358722  0.81340294     0.02710
C3380       C  0.55901324  0.69127452  0.82818122    -0.11380
H3381       H  0.99913266  0.69344968  0.80406791     0.08300
H3382       H  0.54348641  0.64138028  0.78741116     0.05830
H3383       H  0.57452627  0.70196023  0.84150448     0.05680
C3384       C  0.74199424  0.75905089  0.89653254    -0.02900
C3385       C  0.74404940  0.99341248  0.89470412    -0.02900
C3386       C  0.51346869  0.76126967  0.89703616    -0.02900
O3387       O  0.79080107  0.63047647  0.94530898    -0.82210
C3388       C  0.89018757  0.70482343  0.00285271     0.97140
O3389       O  0.88591786  0.68080854  0.99291374    -0.71330
O3390       O  0.83186620  0.62903354  0.99805097    -0.74920
Al3391     Al  0.85419619  0.65198920  0.97346234     1.48980
C3392       C  0.80268714  0.61284954  0.99974128     0.92400
O3393       O  0.79008059  0.67167674  0.99554386    -0.81140
O3394       O  0.83692583  0.71717218  0.94492848    -0.74700
Al3395     Al  0.79271864  0.65252971  0.97037513     1.90120
O3396       O  0.82601938  0.71972569  0.98764767    -0.73770
O3397       O  0.88956251  0.71978711  0.95457088    -0.73620
O3398       O  0.87613018  0.71873372  0.99708451    -0.79280
O3399       O  0.87929091  0.67189651  0.94901607    -0.77480
O3400       O  0.83421204  0.67317496  0.97151204    -1.13610
O3401       O  0.82603794  0.61845640  0.95490677    -0.72810
C3402       C  0.80271333  0.61333484  0.94365633     0.97910
C3403       C  0.80341318  0.70071664  0.99894844     0.94300
Al3404     Al  0.85531069  0.71508889  0.97100463     1.55560
O3405       O  0.78576390  0.61778938  0.98738735    -0.77430
C3406       C  0.89511081  0.70086596  0.94509824     0.98470
C3407       C  0.80809798  0.70544717  0.94221951     0.93350
O3408       O  0.78919754  0.68226792  0.95314219    -0.82750
C3409       C  0.92294515  0.71405049  0.90956530    -0.02260
C3410       C  0.92348583  0.71336505  0.93186949     0.07420
C3411       C  0.95165588  0.72278226  0.94223350    -0.02370
C3412       C  0.97867856  0.73169070  0.93072525    -0.02380
C3413       C  0.98076766  0.74006194  0.90857611     0.07550
C3414       C  0.95117755  0.72693451  0.89783090    -0.02570
Br3415     Br  0.94786232  0.72547518  0.86720467    -0.01120
Br3416     Br  0.88372710  0.70002623  0.89535012    -0.01190
Br3417     Br  0.00590290  0.72022829  0.94526805    -0.01150
Br3418     Br  0.95342708  0.72219425  0.97280444    -0.01140
C3419       C  0.74385191  0.53260980  0.92268588    -0.02260
C3420       C  0.76033143  0.52703586  0.90612654     0.07420
C3421       C  0.79247875  0.55218204  0.90311407    -0.02370
C3422       C  0.80458703  0.58112666  0.91390897    -0.02380
C3423       C  0.78774116  0.58516734  0.92983169     0.07550
C3424       C  0.75772423  0.56069409  0.93442180    -0.02570
Br3425     Br  0.73545270  0.56531852  0.95775414    -0.01120
Br3426     Br  0.70067407  0.50420600  0.92944167    -0.01190
Br3427     Br  0.84553008  0.61614846  0.90751108    -0.01150
Br3428     Br  0.82518278  0.54883298  0.88895569    -0.01140
C3429       C  0.78696677  0.76350753  0.92055065    -0.02260
C3430       C  0.75949981  0.74392235  0.90803296     0.07420
C3431       C  0.74932104  0.71098374  0.90770593    -0.02370
C3432       C  0.76853857  0.70007614  0.91578226    -0.02380
C3433       C  0.79534531  0.71974498  0.92759007     0.07550
C3434       C  0.80520462  0.75167826  0.92922753    -0.02570
Br3435     Br  0.84558190  0.78030510  0.94150904    -0.01120
Br3436     Br  0.80202078  0.80745371  0.92574667    -0.01190
Br3437     Br  0.75819376  0.65736372  0.91045658    -0.01150
Br3438     Br  0.70652775  0.67765973  0.90368564    -0.01140
C3439       C  0.54603533  0.74406077  0.84560564    -0.02260
C3440       C  0.52675803  0.71206686  0.84256457     0.07420
C3441       C  0.00510322  0.69407669  0.85819449    -0.02370
C3442       C  0.00075072  0.70845346  0.87611809    -0.02380
C3443       C  0.51960423  0.74206113  0.87920218     0.07550
C3444       C  0.54575843  0.75755712  0.86495528    -0.02570
Br3445     Br  0.58784771  0.78778962  0.87378661    -0.01120
Br3446     Br  0.57629847  0.76859717  0.82412964    -0.01190
Br3447     Br  0.97455945  0.67879173  0.89766996    -0.01150
Br3448     Br  0.98351569  0.64887136  0.85570003    -0.01140
C3449       C  0.66023145  0.71395590  0.86878819    -0.02260
C3450       C  0.66499064  0.69950854  0.85110293     0.07420
C3451       C  0.69238213  0.69786404  0.85168639    -0.02370
C3452       C  0.71827527  0.71966447  0.86373577    -0.02380
C3453       C  0.71407466  0.73475179  0.88168585     0.07550
C3454       C  0.68191033  0.72446413  0.88563823    -0.02570
Br3455     Br  0.66316386  0.71595925  0.91342410    -0.01120
Br3456     Br  0.62689291  0.72296487  0.87122332    -0.01190
Br3457     Br  0.75640215  0.72237136  0.85582006    -0.01150
Br3458     Br  0.69181677  0.66093904  0.84104872    -0.01140
C3459       C  0.99444285  0.81499864  0.86005103    -0.02260
C3460       C  0.52253273  0.82948762  0.84860825     0.07420
C3461       C  0.54787157  0.82810256  0.85710561    -0.02370
C3462       C  0.54553144  0.81500235  0.87712674    -0.02380
C3463       C  0.51613563  0.79173555  0.88518410     0.07550
C3464       C  0.99117243  0.79678708  0.87854232    -0.02570
Br3465     Br  0.95714457  0.78995789  0.89666673    -0.01120
Br3466     Br  0.96124314  0.82214204  0.85128613    -0.01190
Br3467     Br  0.57907152  0.84317457  0.89563924    -0.01150
Br3468     Br  0.58743222  0.84671958  0.84269017    -0.01140
C3469       C  0.67740981  0.99903107  0.86246142    -0.02260
C3470       C  0.66788401  0.97467154  0.84788069     0.07420
C3471       C  0.68214920  0.95663847  0.84832305    -0.02370
C3472       C  0.70340338  0.96066201  0.86462052    -0.02380
C3473       C  0.71616120  0.98745918  0.87881021     0.07550
C3474       C  0.70370261  0.00813611  0.87563955    -0.02570
Br3475     Br  0.72278028  0.05176802  0.88399012    -0.01120
Br3476     Br  0.65356929  0.01987008  0.86456237    -0.01190
Br3477     Br  0.71066077  0.92586183  0.86755986    -0.01150
Br3478     Br  0.67269415  0.92633762  0.82607796    -0.01140
C3479       C  0.81037834  0.81428966  0.85575343    -0.02260
C3480       C  0.79454664  0.82789704  0.84589406     0.07420
C3481       C  0.76710069  0.82297736  0.85519057    -0.02370
C3482       C  0.76076619  0.81121153  0.87570642    -0.02380
C3483       C  0.76695838  0.78737142  0.88170584     0.07550
C3484       C  0.79580335  0.79194447  0.87240079    -0.02570
Br3485     Br  0.81901430  0.77131221  0.88000604    -0.01120
Br3486     Br  0.85274538  0.82806991  0.84732554    -0.01190
Br3487     Br  0.77392037  0.84579223  0.89496840    -0.01150
Br3488     Br  0.74194809  0.83858247  0.84286535    -0.01140
C3489       C  0.78367035  0.49415018  0.84192734    -0.02260
C3490       C  0.79851455  0.97710682  0.84614661     0.07420
C3491       C  0.79963210  0.96802424  0.86707539    -0.02370
C3492       C  0.78011941  0.96935757  0.88250544    -0.02380
C3493       C  0.76727648  0.98976878  0.87936514     0.07550
C3494       C  0.77319464  0.50460281  0.85871568    -0.02570
Br3495     Br  0.76929215  0.54060728  0.85200835    -0.01120
Br3496     Br  0.77513973  0.50140291  0.81307799    -0.01190
Br3497     Br  0.76799089  0.93584718  0.90302940    -0.01150
Br3498     Br  0.82794496  0.95336816  0.87469119    -0.01140
C3499       C  0.91453577  0.55455651  0.77210211    -0.02260
C3500       C  0.90370150  0.55227191  0.75027967     0.07420
C3501       C  0.87653157  0.52265167  0.74508616    -0.02370
C3502       C  0.85818989  0.50137449  0.76111339    -0.02380
C3503       C  0.86673729  0.50799336  0.78249175     0.07550
C3504       C  0.89458143  0.53479337  0.78798269    -0.02570
Br3505     Br  0.90731185  0.54224952  0.81756382    -0.01120
Br3506     Br  0.95795030  0.57285645  0.78105760    -0.01190
Br3507     Br  0.81890510  0.46413705  0.75403381    -0.01150
Br3508     Br  0.86093274  0.50970210  0.71676133    -0.01140
C3509       C  0.98347459  0.62061098  0.74203425    -0.02260
C3510       C  0.95032732  0.60801570  0.74480967     0.07420
C3511       C  0.94305836  0.62326891  0.76142632    -0.02370
C3512       C  0.96404048  0.63874658  0.77805385    -0.02380
C3513       C  0.99587732  0.65007978  0.77534862     0.07550
C3514       C  0.00538510  0.64430725  0.75580787    -0.02570
Br3515     Br  0.54855487  0.67004240  0.74756756    -0.01120
Br3516     Br  0.50283025  0.60815016  0.72097783    -0.01190
Br3517     Br  0.94643899  0.63651972  0.80573556    -0.01150
Br3518     Br  0.90594090  0.62577439  0.76394398    -0.01140
C3519       C  0.90612322  0.63650217  0.69859980    -0.02260
C3520       C  0.87413226  0.62506656  0.70079088     0.07420
C3521       C  0.85676341  0.59925250  0.71419892    -0.02370
C3522       C  0.87108001  0.58515549  0.72592136    -0.02380
C3523       C  0.90347219  0.59435375  0.72238921     0.07550
C3524       C  0.92034326  0.62117379  0.70850271    -0.02570
Br3525     Br  0.96202670  0.63545198  0.69874745    -0.01120
Br3526     Br  0.93051435  0.67130597  0.67939971    -0.01190
Br3527     Br  0.84517188  0.55908505  0.74898996    -0.01150
Br3528     Br  0.81268350  0.58407169  0.71730379    -0.01140
C3529       C  0.65006814  0.53373393  0.75016703    -0.02260
C3530       C  0.65011910  0.56202579  0.75562922     0.07420
C3531       C  0.64702410  0.56566547  0.77804323    -0.02370
C3532       C  0.63504569  0.53980172  0.79184286    -0.02380
C3533       C  0.63333470  0.51202411  0.78566819     0.07550
C3534       C  0.64209434  0.50945495  0.76517877    -0.02570
Br3535     Br  0.64201431  0.97151478  0.75775497    -0.01120
Br3536     Br  0.66053564  0.52565300  0.72283528    -0.01190
Br3537     Br  0.62129480  0.54260678  0.81980502    -0.01150
Br3538     Br  0.66868759  0.60494368  0.79334473    -0.01140
C3539       C  0.62038093  0.60572708  0.75892973    -0.02260
C3540       C  0.64988208  0.61409658  0.74950155     0.07420
C3541       C  0.67398472  0.64649554  0.75272931    -0.02370
C3542       C  0.66854118  0.66630456  0.76612718    -0.02380
C3543       C  0.64157745  0.65371057  0.77860940     0.07550
C3544       C  0.61888741  0.62224805  0.77597251    -0.02570
Br3545     Br  0.58558995  0.59962379  0.79605688    -0.01120
Br3546     Br  0.58023468  0.58563877  0.74480230    -0.01190
Br3547     Br  0.69779268  0.71079691  0.76761237    -0.01150
Br3548     Br  0.71383717  0.66712074  0.73891745    -0.01140
C3549       C  0.68608252  0.59838103  0.70255840    -0.02260
C3550       C  0.68494437  0.59771360  0.72542317     0.07420
C3551       C  0.71458828  0.60643087  0.73536633    -0.02370
C3552       C  0.74257499  0.62086973  0.72345067    -0.02380
C3553       C  0.74216185  0.62841714  0.70205690     0.07550
C3554       C  0.71357221  0.61874288  0.69210900    -0.02570
Br3555     Br  0.71077990  0.63040457  0.66320429    -0.01120
Br3556     Br  0.65743715  0.56516695  0.68355971    -0.01190
Br3557     Br  0.78237214  0.63369890  0.73673189    -0.01150
Br3558     Br  0.71992022  0.59889786  0.76460123    -0.01140
C3559       C  0.94148765  0.85495306  0.77516121    -0.02260
C3560       C  0.94096303  0.84925417  0.75255761     0.07420
C3561       C  0.96440685  0.84196807  0.74601863    -0.02370
C3562       C  0.98809899  0.84499476  0.76031001    -0.02380
C3563       C  0.99106023  0.85799488  0.78037293     0.07550
C3564       C  0.96863317  0.86472453  0.78709720    -0.02570
Br3565     Br  0.97461890  0.88682552  0.81353259    -0.01120
Br3566     Br  0.90625829  0.84098011  0.79412027    -0.01190
Br3567     Br  0.51868639  0.83419362  0.75212311    -0.01150
Br3568     Br  0.96855331  0.83118052  0.71742260    -0.01140
C3569       C  0.85868160  0.83280610  0.74780298    -0.02260
C3570       C  0.89191351  0.85466127  0.74866767     0.07420
C3571       C  0.90179324  0.88234009  0.76128181    -0.02370
C3572       C  0.88142500  0.88391610  0.77573939    -0.02380
C3573       C  0.85008544  0.85993722  0.77663817     0.07550
C3574       C  0.83867172  0.83487994  0.76249674    -0.02570
Br3575     Br  0.79458614  0.80437297  0.76249666    -0.01120
Br3576     Br  0.83690343  0.80665764  0.72346431    -0.01190
Br3577     Br  0.89824144  0.91651816  0.79715380    -0.01150
Br3578     Br  0.94357520  0.91849450  0.76097930    -0.01140
C3579       C  0.90416568  0.81693939  0.70010633    -0.02260
C3580       C  0.90184098  0.81891438  0.72284512     0.07420
C3581       C  0.88624084  0.78867652  0.73351117    -0.02370
C3582       C  0.87122130  0.76022184  0.72202513    -0.02380
C3583       C  0.87712332  0.76014542  0.70057568     0.07550
C3584       C  0.89701751  0.78853369  0.69058903    -0.02570
Br3585     Br  0.91633154  0.78911410  0.66403600    -0.01120
Br3586     Br  0.91255305  0.84817424  0.67878538    -0.01190
Br3587     Br  0.84372110  0.72050785  0.73563539    -0.01150
Br3588     Br  0.88144656  0.78287051  0.76345554    -0.01140
C3589       C  0.86150691  0.95778243  0.37174533    -0.02260
C3590       C  0.85566102  0.93425768  0.38777702     0.07420
C3591       C  0.88024166  0.92657808  0.38992043    -0.02370
C3592       C  0.90956718  0.94538224  0.38030874    -0.02380
C3593       C  0.91398029  0.96760615  0.36485043     0.07550
C3594       C  0.88993380  0.97370673  0.36058509    -0.02570
Br3595     Br  0.89604751  0.00438748  0.33890060    -0.01120
Br3596     Br  0.83307781  0.97223369  0.36484801    -0.01190
Br3597     Br  0.94477684  0.94076894  0.38819887    -0.01150
Br3598     Br  0.87557961  0.88703511  0.39996121    -0.01140
C3599       C  0.58640276  0.63082371  0.39100057    -0.02260
C3600       C  0.56910658  0.64577093  0.39612619     0.07420
C3601       C  0.53567515  0.62496294  0.39252412    -0.02370
C3602       C  0.52437640  0.59849395  0.37890947    -0.02380
C3603       C  0.54497536  0.59128619  0.36868330     0.07550
C3604       C  0.57647997  0.60832999  0.37477123    -0.02570
Br3605     Br  0.60685264  0.60002527  0.36257767    -0.01120
Br3606     Br  0.60789313  0.62118929  0.41282140    -0.01190
Br3607     Br  0.97978948  0.57141140  0.37448017    -0.01150
Br3608     Br  0.50191023  0.62885463  0.40475450    -0.01140
C3609       C  0.57886356  0.96133264  0.39238431    -0.02260
C3610       C  0.57186693  0.92925715  0.38914898     0.07420
C3611       C  0.54983878  0.91293759  0.37209725    -0.02370
C3612       C  0.53572512  0.92691812  0.36020988    -0.02380
C3613       C  0.54074392  0.95652989  0.36539570     0.07550
C3614       C  0.56138910  0.97303840  0.38193489    -0.02570
Br3615     Br  0.56599758  0.51283580  0.38996227    -0.01120
Br3616     Br  0.61582997  0.99457146  0.40623708    -0.01190
Br3617     Br  0.50967551  0.90560189  0.33585853    -0.01150
Br3618     Br  0.53492227  0.86988838  0.36475908    -0.01140
C3619       C  0.64155300  0.70244320  0.45510235    -0.02260
C3620       C  0.66561723  0.69896901  0.44709340     0.07420
C3621       C  0.66713317  0.69497739  0.42527418    -0.02370
C3622       C  0.64288921  0.69139318  0.41153321    -0.02380
C3623       C  0.61559569  0.69060860  0.41980504     0.07550
C3624       C  0.61900169  0.70196927  0.44145113    -0.02570
Br3625     Br  0.60296395  0.72809716  0.45221668    -0.01120
Br3626     Br  0.64110409  0.71110283  0.48504209    -0.01190
Br3627     Br  0.64964516  0.68890826  0.38147334    -0.01150
Br3628     Br  0.70189619  0.69241177  0.41450048    -0.01140
C3629       C  0.83758446  0.87277754  0.44727126    -0.02260
C3630       C  0.80920768  0.84404845  0.44904694     0.07420
C3631       C  0.78598176  0.83870692  0.43401651    -0.02370
C3632       C  0.79345152  0.85699521  0.41533895    -0.02380
C3633       C  0.81934928  0.88895544  0.41527663     0.07550
C3634       C  0.83997397  0.89644779  0.43337094    -0.02570
Br3635     Br  0.87461981  0.93789459  0.43935457    -0.01120
Br3636     Br  0.87541264  0.88000305  0.46112619    -0.01190
Br3637     Br  0.76422548  0.83462584  0.39279043    -0.01150
Br3638     Br  0.74224641  0.81101371  0.44063294    -0.01140
C3639       C  0.51689559  0.84795038  0.43488018    -0.02260
C3640       C  0.53217205  0.83804942  0.44887264     0.07420
C3641       C  0.56427968  0.85105436  0.44741062    -0.02370
C3642       C  0.58105387  0.87215878  0.43099166    -0.02380
C3643       C  0.56686354  0.88505567  0.41697803     0.07550
C3644       C  0.53385431  0.87297360  0.42047699    -0.02570
Br3645     Br  0.50942604  0.89102626  0.41029760    -0.01120
Br3646     Br  0.97184040  0.82669013  0.43604775    -0.01190
Br3647     Br  0.62302893  0.87967205  0.42795735    -0.01150
Br3648     Br  0.58559209  0.84015740  0.46873692    -0.01140
C3649       C  0.52483894  0.70108400  0.42924971    -0.02260
C3650       C  0.51942815  0.68623701  0.44907676     0.07420
C3651       C  0.53280480  0.66774176  0.45364144    -0.02370
C3652       C  0.55038051  0.66347749  0.43820457    -0.02380
C3653       C  0.56121752  0.68338205  0.41959257     0.07550
C3654       C  0.54895568  0.70401122  0.41638049    -0.02570
Br3655     Br  0.56712781  0.74203553  0.39959198    -0.01120
Br3656     Br  0.49909326  0.71785004  0.41957247    -0.01190
Br3657     Br  0.56003614  0.63093850  0.44443451    -0.01150
Br3658     Br  0.53164530  0.65164646  0.48189071    -0.01140
C3659       C  0.79044178  0.93764593  0.44941649    -0.02260
C3660       C  0.80898726  0.96996337  0.45155261     0.07420
C3661       C  0.83252074  0.48698112  0.43686574    -0.02370
C3662       C  0.83946340  0.97126832  0.42106860    -0.02380
C3663       C  0.81807753  0.93813976  0.41670879     0.07550
C3664       C  0.79180483  0.92296019  0.43101800    -0.02570
Br3665     Br  0.75312543  0.88436008  0.42550405    -0.01120
Br3666     Br  0.76259681  0.91299122  0.47216341    -0.01190
Br3667     Br  0.88097060  0.99765521  0.40992624    -0.01150
Br3668     Br  0.85530257  0.53225327  0.43893633    -0.01140
C3669       C  0.64973654  0.94992838  0.41477822    -0.02260
C3670       C  0.61625516  0.93669360  0.41696398     0.07420
C3671       C  0.60724800  0.94200137  0.43748786    -0.02370
C3672       C  0.62732598  0.94988900  0.45506743    -0.02380
C3673       C  0.65956122  0.96419506  0.45215706     0.07550
C3674       C  0.67038150  0.96774659  0.43134839    -0.02570
Br3675     Br  0.71373468  0.99748676  0.42539638    -0.01120
Br3676     Br  0.67174183  0.94056060  0.39385625    -0.01190
Br3677     Br  0.60930197  0.93754668  0.48291218    -0.01150
Br3678     Br  0.56799454  0.93944475  0.44313244    -0.01140
C3679       C  0.57738864  0.53082332  0.70528852    -0.02260
C3680       C  0.58028061  0.55017232  0.68810593     0.07420
C3681       C  0.60301789  0.58188622  0.68851585    -0.02370
C3682       C  0.62451957  0.59397141  0.70538103    -0.02380
C3683       C  0.62533235  0.57353346  0.72168153     0.07550
C3684       C  0.59857929  0.54228738  0.72244111    -0.02570
Br3685     Br  0.58220856  0.51792773  0.74832649    -0.01120
Br3686     Br  0.54152029  0.98932443  0.70647953    -0.01190
Br3687     Br  0.65290024  0.63877529  0.70409718    -0.01150
Br3688     Br  0.60717480  0.60816395  0.66430318    -0.01140
C3689       C  0.96113160  0.53705421  0.70293821    -0.02260
C3690       C  0.95445493  0.53891273  0.68178211     0.07420
C3691       C  0.93173266  0.54627653  0.67659865    -0.02370
C3692       C  0.92075951  0.55899155  0.69197141    -0.02380
C3693       C  0.93073882  0.56178379  0.71423948     0.07550
C3694       C  0.94620549  0.54419709  0.71892826    -0.02570
Br3695     Br  0.94357726  0.52237202  0.74485453    -0.01120
Br3696     Br  0.99051752  0.52357298  0.70986034    -0.01190
Br3697     Br  0.88779382  0.56500264  0.68015918    -0.01150
Br3698     Br  0.91304611  0.53440973  0.64857073    -0.01140
C3699       C  0.93137596  0.91816939  0.69349777    -0.02260
C3700       C  0.96048112  0.92541962  0.68513655     0.07420
C3701       C  0.97692127  0.91301141  0.69576858    -0.02370
C3702       C  0.96601671  0.89654967  0.71502048    -0.02380
C3703       C  0.93369559  0.88157937  0.72049785     0.07550
C3704       C  0.91729467  0.89562020  0.71004984    -0.02570
Br3705     Br  0.87484812  0.88529973  0.71535576    -0.01120
Br3706     Br  0.90891136  0.93741616  0.68140688    -0.01190
Br3707     Br  0.99924540  0.91084821  0.73576613    -0.01150
Br3708     Br  0.51396730  0.91603469  0.68407073    -0.01140
C3709       C  0.71852418  0.59089616  0.58885159    -0.02260
C3710       C  0.70946201  0.60850712  0.57558232     0.07420
C3711       C  0.72784570  0.64191669  0.57967653    -0.02370
C3712       C  0.74407702  0.65352530  0.59924597    -0.02380
C3713       C  0.74698990  0.63340696  0.61396410     0.07550
C3714       C  0.73122328  0.60120767  0.60907367    -0.02570
Br3715     Br  0.72619429  0.56903190  0.62906758    -0.01120
Br3716     Br  0.73174732  0.56318962  0.57752127    -0.01190
Br3717     Br  0.76090841  0.69747061  0.60579284    -0.01150
Br3718     Br  0.74434045  0.67428579  0.55791148    -0.01140
C3719       C  0.67986591  0.60835816  0.51942094    -0.02260
C3720       C  0.67937625  0.61357926  0.54182051     0.07420
C3721       C  0.67753535  0.64077519  0.54698266    -0.02370
C3722       C  0.68451701  0.66421815  0.53132191    -0.02380
C3723       C  0.69446695  0.66138087  0.51109359     0.07550
C3724       C  0.69245551  0.63340552  0.50536547    -0.02570
Br3725     Br  0.70568590  0.62852663  0.47765943    -0.01120
Br3726     Br  0.65442255  0.56851976  0.50527173    -0.01190
Br3727     Br  0.68283412  0.70126157  0.53782834    -0.01150
Br3728     Br  0.66752449  0.64806780  0.57515518    -0.01140
C3729       C  0.71599424  0.55814356  0.51900325    -0.02260
C3730       C  0.69475397  0.52611582  0.51879901     0.07420
C3731       C  0.66926684  0.51338909  0.53237141    -0.02370
C3732       C  0.66209688  0.53319142  0.54374134    -0.02380
C3733       C  0.68522364  0.56598368  0.54635956     0.07550
C3734       C  0.71324165  0.57724000  0.53397808    -0.02570
Br3735     Br  0.74896307  0.61882026  0.53545124    -0.01120
Br3736     Br  0.74747984  0.57632678  0.49716553    -0.01190
Br3737     Br  0.61773374  0.51419039  0.54856937    -0.01150
Br3738     Br  0.64319542  0.96840448  0.53447259    -0.01140
C3739       C  0.59608456  0.56730824  0.58127367    -0.02260
C3740       C  0.59511715  0.55232940  0.60032595     0.07420
C3741       C  0.61958351  0.54729078  0.60542744    -0.02370
C3742       C  0.64407148  0.55532585  0.59110778    -0.02380
C3743       C  0.64823034  0.57419626  0.57248059     0.07550
C3744       C  0.62097018  0.57646879  0.56691482    -0.02570
Br3745     Br  0.61042382  0.58338879  0.53851154    -0.01120
Br3746     Br  0.56170715  0.57378799  0.57456034    -0.01190
Br3747     Br  0.66040958  0.52755108  0.59401342    -0.01150
Br3748     Br  0.61908115  0.02826856  0.63245477    -0.01140
C3749       C  0.87121552  0.58344398  0.60159447    -0.02260
C3750       C  0.89125966  0.60404917  0.58518069     0.07420
C3751       C  0.89787083  0.63591188  0.58621050    -0.02370
C3752       C  0.87949661  0.64351620  0.59854454    -0.02380
C3753       C  0.86107721  0.62354238  0.61465011     0.07550
C3754       C  0.85728298  0.59366530  0.61644284    -0.02570
Br3755     Br  0.83272385  0.56682083  0.63950653    -0.01120
Br3756     Br  0.86316413  0.54161291  0.60576450    -0.01190
Br3757     Br  0.87788557  0.68081397  0.59231758    -0.01150
Br3758     Br  0.93581354  0.67265776  0.57678269    -0.01140
C3759       C  0.90639392  0.62548993  0.53392482    -0.02260
C3760       C  0.92284334  0.61780477  0.54961000     0.07420
C3761       C  0.95653629  0.63566353  0.54744723    -0.02370
C3762       C  0.97048871  0.65436198  0.52928054    -0.02380
C3763       C  0.95220055  0.65501621  0.51252479     0.07550
C3764       C  0.92006059  0.63921394  0.51448221    -0.02570
Br3765     Br  0.89513685  0.64070901  0.49131381    -0.01120
Br3766     Br  0.87494454  0.63574075  0.54081269    -0.01190
Br3767     Br  0.51534052  0.68166973  0.52764205    -0.01150
Br3768     Br  0.98635925  0.64297016  0.56989873    -0.01140
C3769       C  0.85054511  0.56622356  0.54807265    -0.02260
C3770       C  0.87489962  0.56208224  0.55642463     0.07420
C3771       C  0.87052834  0.53156582  0.55144588    -0.02370
C3772       C  0.85140740  0.51417860  0.53387491    -0.02380
C3773       C  0.83538168  0.52569640  0.52179825     0.07550
C3774       C  0.83624727  0.55285158  0.52879037    -0.02570
Br3775     Br  0.81605445  0.57133483  0.51304983    -0.01120
Br3776     Br  0.82331063  0.57262936  0.56623741    -0.01190
Br3777     Br  0.84546306  0.97356182  0.52684877    -0.01150
Br3778     Br  0.88181061  0.50751877  0.57010548    -0.01140
C3779       C  0.94183148  0.56791037  0.56568786    -0.02260
C3780       C  0.92818931  0.58212391  0.57816246     0.07420
C3781       C  0.94081684  0.59061840  0.59955505    -0.02370
C3782       C  0.96002713  0.57979305  0.60812876    -0.02380
C3783       C  0.96475520  0.55810263  0.59728857     0.07550
C3784       C  0.95798463  0.55427640  0.57557816    -0.02570
Br3785     Br  0.97249022  0.53163405  0.55933199    -0.01120
Br3786     Br  0.93898397  0.56592865  0.53499393    -0.01190
Br3787     Br  0.98466080  0.59879247  0.63344402    -0.01150
Br3788     Br  0.94081837  0.62295426  0.61690004    -0.01140
C3789       C  0.88479862  0.80376917  0.59883564    -0.02260
C3790       C  0.90315602  0.80138547  0.58213902     0.07420
C3791       C  0.91398858  0.77945882  0.58657747    -0.02370
C3792       C  0.90535908  0.76155096  0.60542515    -0.02380
C3793       C  0.88020212  0.75780163  0.61738200     0.07550
C3794       C  0.87207431  0.78116191  0.61530727    -0.02570
Br3795     Br  0.84519882  0.78448435  0.63591738    -0.01120
Br3796     Br  0.87191015  0.83474237  0.59895141    -0.01190
Br3797     Br  0.93363853  0.74932531  0.61792159    -0.01150
Br3798     Br  0.94384820  0.77326784  0.57073380    -0.01140
C3799       C  0.89293178  0.83416011  0.52650260    -0.02260
C3800       C  0.88590659  0.82074458  0.54757278     0.07420
C3801       C  0.85272600  0.80094524  0.55166531    -0.02370
C3802       C  0.83078334  0.80202935  0.53781863    -0.02380
C3803       C  0.83892006  0.81152203  0.51676774     0.07550
C3804       C  0.86983728  0.82385370  0.51096551    -0.02570
Br3805     Br  0.88046193  0.82007858  0.48231590    -0.01120
Br3806     Br  0.93220597  0.86880097  0.51718827    -0.01190
Br3807     Br  0.78876749  0.78761598  0.54705974    -0.01150
Br3808     Br  0.83254330  0.76452137  0.57006741    -0.01140
C3809       C  0.96896696  0.84314516  0.54294545    -0.02260
C3810       C  0.93618282  0.82086956  0.54682610     0.07420
C3811       C  0.92214249  0.79365913  0.53317525    -0.02370
C3812       C  0.93892423  0.79005052  0.51687603    -0.02380
C3813       C  0.97114318  0.80967156  0.51572398     0.07550
C3814       C  0.98624152  0.83536397  0.52925298    -0.02570
Br3815     Br  0.53127576  0.86032501  0.52849224    -0.01120
Br3816     Br  0.99217645  0.88712643  0.55091471    -0.01190
Br3817     Br  0.91743620  0.75791952  0.49558556    -0.01150
Br3818     Br  0.88097052  0.75773156  0.53729661    -0.01140
C3819       C  0.95306148  0.86563124  0.59052346    -0.02260
C3820       C  0.93130247  0.85947562  0.57337883     0.07420
C3821       C  0.92498626  0.88466173  0.56902500    -0.02370
C3822       C  0.94340016  0.91443610  0.57848362    -0.02380
C3823       C  0.96168209  0.91809642  0.59652676     0.07550
C3824       C  0.96412085  0.89227826  0.60331060    -0.02570
Br3825     Br  0.48004344  0.89099218  0.63122983    -0.01120
Br3826     Br  0.97330800  0.84175582  0.59615778    -0.01190
Br3827     Br  0.94292668  0.95027608  0.56651292    -0.01150
Br3828     Br  0.88854475  0.88118736  0.55474895    -0.01140
C3829       C  0.63199342  0.90968136  0.34948894    -0.02260
C3830       C  0.62951635  0.88029386  0.35137919     0.07420
C3831       C  0.61268312  0.86058595  0.36808802    -0.02370
C3832       C  0.59528167  0.86818739  0.38153402    -0.02380
C3833       C  0.60143265  0.90017790  0.38266662     0.07550
C3834       C  0.61862447  0.91992232  0.36486912    -0.02570
Br3835     Br  0.62904249  0.96305184  0.36150489    -0.01120
Br3836     Br  0.65556509  0.93679027  0.32612908    -0.01190
Br3837     Br  0.55948589  0.83032747  0.39282712    -0.01150
Br3838     Br  0.61445470  0.82286894  0.37309825    -0.01140
C3839       C  0.62720698  0.73671746  0.38704091    -0.02260
C3840       C  0.59773231  0.70702197  0.38608457     0.07420
C3841       C  0.57994929  0.70300622  0.36689589    -0.02370
C3842       C  0.59206020  0.72514372  0.35010020    -0.02380
C3843       C  0.62240116  0.75060557  0.35099491     0.07550
C3844       C  0.64047454  0.75522198  0.36892646    -0.02570
Br3845     Br  0.68333947  0.78943827  0.36924676    -0.01120
Br3846     Br  0.64876177  0.75985749  0.41221031    -0.01190
Br3847     Br  0.56690796  0.72178981  0.32552211    -0.01150
Br3848     Br  0.53645288  0.67353569  0.36371358    -0.01140
C3849       C  0.77542389  0.87616383  0.34737075    -0.02260
C3850       C  0.74821932  0.87719173  0.34977546     0.07420
C3851       C  0.74600338  0.89409973  0.36651053    -0.02370
C3852       C  0.77143008  0.91123824  0.38033340    -0.02380
C3853       C  0.79680607  0.90471777  0.38147162     0.07550
C3854       C  0.79871562  0.88810813  0.36327627    -0.02570
Br3855     Br  0.82962268  0.87621387  0.35959580    -0.01120
Br3856     Br  0.78013607  0.85738598  0.32201425    -0.01190
Br3857     Br  0.77017421  0.94631886  0.39323626    -0.01150
Br3858     Br  0.70724059  0.89321794  0.37073152    -0.01140
C3859       C  0.52964934  0.93049501  0.24690927    -0.02260
C3860       C  0.56213485  0.93920200  0.24516151     0.07420
C3861       C  0.58296987  0.96243553  0.26035721    -0.02370
C3862       C  0.57266748  0.97617974  0.27532256    -0.02380
C3863       C  0.54111675  0.96657094  0.27693752     0.07550
C3864       C  0.51983720  0.94380939  0.26275652    -0.02570
Br3865     Br  0.97631185  0.93121229  0.26474794    -0.01120
Br3866     Br  0.49620726  0.90216262  0.22829060    -0.01190
Br3867     Br  0.60214267  0.50658983  0.29545825    -0.01150
Br3868     Br  0.62585551  0.97391101  0.26424840    -0.01140
C3869       C  0.59542920  0.88296268  0.27544370    -0.02260
C3870       C  0.61451421  0.87411576  0.26541809     0.07420
C3871       C  0.61643792  0.87549403  0.24345751    -0.02370
C3872       C  0.60198911  0.88905321  0.23147082    -0.02380
C3873       C  0.58800820  0.90505957  0.24157963     0.07550
C3874       C  0.58121156  0.89700643  0.26399311    -0.02570
Br3875     Br  0.54693638  0.89515838  0.28002971    -0.01120
Br3876     Br  0.58591330  0.87214822  0.30505846    -0.01190
Br3877     Br  0.60255035  0.88355783  0.20148770    -0.01150
Br3878     Br  0.63944474  0.85849893  0.23011148    -0.01140
C3879       C  0.54754586  0.63858363  0.26369278    -0.02260
C3880       C  0.57212183  0.64372414  0.25067536     0.07420
C3881       C  0.59285864  0.63633222  0.26179047    -0.02370
C3882       C  0.58005021  0.61065693  0.27637792    -0.02380
C3883       C  0.54768764  0.59521526  0.28134102     0.07550
C3884       C  0.53111706  0.60981228  0.27413846    -0.02570
Br3885     Br  0.98994036  0.59792480  0.28342403    -0.01120
Br3886     Br  0.56016290  0.67187552  0.28388286    -0.01190
Br3887     Br  0.60681963  0.59569229  0.28711463    -0.01150
Br3888     Br  0.63736179  0.65883622  0.25872216    -0.01140
C3889       C  0.49757857  0.65282570  0.20543216    -0.02260
C3890       C  0.50059860  0.64452511  0.18482144     0.07420
C3891       C  0.52004756  0.63252708  0.18142113    -0.02370
C3892       C  0.53563420  0.62886189  0.19855891    -0.02380
C3893       C  0.54265546  0.64766418  0.21708971     0.07550
C3894       C  0.51862387  0.65499081  0.22172055    -0.02570
Br3895     Br  0.51132044  0.66840722  0.24846624    -0.01120
Br3896     Br  0.96496400  0.66223651  0.21057243    -0.01190
Br3897     Br  0.53254623  0.58882638  0.19932792    -0.01150
Br3898     Br  0.52190926  0.61639970  0.15406026    -0.01140
C3899       C  0.62672590  0.71199794  0.23996520    -0.02260
C3900       C  0.59515230  0.69762960  0.23309156     0.07420
C3901       C  0.58176306  0.71713962  0.23563409    -0.02370
C3902       C  0.59384025  0.74121833  0.25102637    -0.02380
C3903       C  0.62172610  0.74927793  0.26209931     0.07550
C3904       C  0.63815363  0.73433136  0.25619779    -0.02570
Br3905     Br  0.67595900  0.74230709  0.27051883    -0.01120
Br3906     Br  0.65866759  0.71378738  0.22187723    -0.01190
Br3907     Br  0.57254889  0.76434072  0.25550513    -0.01150
Br3908     Br  0.55876324  0.72390292  0.21325469    -0.01140
C3909       C  0.90053501  0.96022284  0.24051398    -0.02260
C3910       C  0.86805594  0.93946306  0.24604832     0.07420
C3911       C  0.86221046  0.93790127  0.26860650    -0.02370
C3912       C  0.88630833  0.94544205  0.28341496    -0.02380
C3913       C  0.91739396  0.96346868  0.27748673     0.07550
C3914       C  0.92436992  0.97240791  0.25627474    -0.02570
Br3915     Br  0.96750314  0.00072513  0.24907276    -0.01120
Br3916     Br  0.91542407  0.97360134  0.21191070    -0.01190
Br3917     Br  0.87653397  0.93100107  0.31235393    -0.01150
Br3918     Br  0.82582779  0.93518982  0.28182340    -0.01140
C3919       C  0.85774788  0.96308230  0.17319316    -0.02260
C3920       C  0.86425526  0.99292338  0.17878846     0.07420
C3921       C  0.86146841  0.49943651  0.19980579    -0.02370
C3922       C  0.85188989  0.97581384  0.21562460    -0.02380
C3923       C  0.84529976  0.94474399  0.21040221     0.07550
C3924       C  0.84507623  0.93863322  0.18808282    -0.02570
Br3925     Br  0.81720248  0.89930402  0.17481735    -0.01120
Br3926     Br  0.86542349  0.95546931  0.14446023    -0.01190
Br3927     Br  0.84671137  0.48795074  0.24338041    -0.01150
Br3928     Br  0.86897823  0.54071215  0.20701673    -0.01140
C3929       C  0.75740006  0.90028252  0.24689329    -0.02260
C3930       C  0.74986284  0.87565854  0.26142825     0.07420
C3931       C  0.76932458  0.86250626  0.26206479    -0.02370
C3932       C  0.79941042  0.87884414  0.25351722    -0.02380
C3933       C  0.80785064  0.90396883  0.23858387     0.07550
C3934       C  0.78376299  0.91128657  0.23368494    -0.02570
Br3935     Br  0.78043250  0.93067602  0.20769810    -0.01120
Br3936     Br  0.73081421  0.91819950  0.24352236    -0.01190
Br3937     Br  0.82750356  0.86460197  0.26290465    -0.01150
Br3938     Br  0.75424695  0.81975672  0.27141163    -0.01140
C3939       C  0.88303114  0.88867130  0.19616515    -0.02260
C3940       C  0.86021887  0.85922545  0.18833950     0.07420
C3941       C  0.83084169  0.84462015  0.19811593    -0.02370
C3942       C  0.82233494  0.86260060  0.21083242    -0.02380
C3943       C  0.84625440  0.89346470  0.21822612     0.07550
C3944       C  0.87691562  0.90018026  0.21434403    -0.02570
Br3945     Br  0.90092995  0.89827032  0.23773544    -0.01120
Br3946     Br  0.92357051  0.91402307  0.18387856    -0.01190
Br3947     Br  0.77749635  0.84497937  0.21190242    -0.01150
Br3948     Br  0.80235378  0.80032895  0.19402155    -0.01140
C3949       C  0.50758062  0.85540931  0.19635259    -0.02260
C3950       C  0.50869350  0.87093786  0.17746573     0.07420
C3951       C  0.53344636  0.90070435  0.17357363    -0.02370
C3952       C  0.55833390  0.91391844  0.18775582    -0.02380
C3953       C  0.55425006  0.90367728  0.20973907     0.07550
C3954       C  0.52972738  0.87142488  0.21267003    -0.02570
Br3955     Br  0.52275646  0.84727054  0.23822403    -0.01120
Br3956     Br  0.97378915  0.81276475  0.20009932    -0.01190
Br3957     Br  0.59722307  0.93409961  0.17216757    -0.01150
Br3958     Br  0.53472610  0.92230088  0.14750213    -0.01140
C3959       C  0.63541437  0.96841561  0.21491653    -0.02260
C3960       C  0.60242546  0.95747641  0.21711585     0.07420
C3961       C  0.59189378  0.97672551  0.20639996    -0.02370
C3962       C  0.61036736  0.99954396  0.19135322    -0.02380
C3963       C  0.64131540  0.00772172  0.18844209     0.07550
C3964       C  0.65425580  0.99373147  0.20104879    -0.02570
Br3965     Br  0.69859315  0.50965199  0.19847096    -0.01120
Br3966     Br  0.65850375  0.95207839  0.22962291    -0.01190
Br3967     Br  0.59104520  0.01520298  0.17138091    -0.01150
Br3968     Br  0.55053266  0.97098923  0.20795155    -0.01140
C3969       C  0.60686591  0.63163517  0.21461250    -0.02260
C3970       C  0.59621299  0.65371564  0.21186448     0.07420
C3971       C  0.60297433  0.66880489  0.19136737    -0.02370
C3972       C  0.61726786  0.66096929  0.17545403    -0.02380
C3973       C  0.63325134  0.64532555  0.18076685     0.07550
C3974       C  0.63007002  0.63331418  0.20139129    -0.02570
Br3975     Br  0.65713469  0.61887816  0.21219475    -0.01120
Br3976     Br  0.58565982  0.59144247  0.22917882    -0.01190
Br3977     Br  0.61224417  0.66967866  0.14619822    -0.01150
Br3978     Br  0.59371720  0.70059614  0.18316806    -0.01140
C3979       C  0.69307811  0.91778723  0.92995116    -0.02260
C3980       C  0.71297162  0.92215600  0.94698352     0.07420
C3981       C  0.74142191  0.95008838  0.94852529    -0.02370
C3982       C  0.75177655  0.97216326  0.93175205    -0.02380
C3983       C  0.73180007  0.96838461  0.91370127     0.07550
C3984       C  0.70021793  0.94198199  0.91529754    -0.02570
Br3985     Br  0.66238096  0.93823237  0.90285904    -0.01120
Br3986     Br  0.65521565  0.87794164  0.92648290    -0.01190
Br3987     Br  0.79532147  0.00386094  0.93378855    -0.01150
Br3988     Br  0.76639309  0.95752372  0.97391647    -0.01140
C3989       C  0.58726616  0.77928662  0.93125259    -0.02260
C3990       C  0.58925243  0.80222893  0.94511298     0.07420
C3991       C  0.56561690  0.80957982  0.94513796    -0.02370
C3992       C  0.54104761  0.79565366  0.93034872    -0.02380
C3993       C  0.53959978  0.77386054  0.91477835     0.07550
C3994       C  0.56164549  0.76336955  0.91754826    -0.02570
Br3995     Br  0.55592875  0.72368830  0.90742956    -0.01120
Br3996     Br  0.61973270  0.76876003  0.93096853    -0.01190
Br3997     Br  0.51000847  0.80757700  0.93290833    -0.01150
Br3998     Br  0.56599302  0.83789662  0.96636816    -0.01140
C3999       C  0.70580752  0.80433026  0.92586619    -0.02260
C4000       C  0.71163478  0.80086308  0.94702760     0.07420
C4001       C  0.72618638  0.78404004  0.95216321    -0.02370
C4002       C  0.72991647  0.76604267  0.93678903    -0.02380
C4003       C  0.72829502  0.77181906  0.91441427     0.07550
C4004       C  0.71250081  0.78914552  0.90969172    -0.02570
Br4005     Br  0.69480794  0.79075707  0.88249645    -0.01120
Br4006     Br  0.69256840  0.83398673  0.91915991    -0.01190
Br4007     Br  0.72518522  0.72770038  0.94884221    -0.01150
Br4008     Br  0.74178182  0.78603712  0.98051103    -0.01140
C4009       C  0.78496487  0.54285788  0.03501438    -0.02260
C4010       C  0.76515633  0.54378839  0.05134547     0.07420
C4011       C  0.75387454  0.56541792  0.04686507    -0.02370
C4012       C  0.76313489  0.58426146  0.02831846    -0.02380
C4013       C  0.78793490  0.58761519  0.01607989     0.07550
C4014       C  0.79744175  0.56567104  0.01868123    -0.02570
Br4015     Br  0.82614226  0.56544483  0.99825509    -0.01120
Br4016     Br  0.80034455  0.51399133  0.03494405    -0.01190
Br4017     Br  0.73842119  0.60207201  0.01789018    -0.01150
Br4018     Br  0.72268878  0.56991377  0.06247805    -0.01140
C4019       C  0.77284871  0.50834201  0.10722761    -0.02260
C4020       C  0.78088654  0.52360850  0.08659277     0.07420
C4021       C  0.81401719  0.54420057  0.08346599    -0.02370
C4022       C  0.83543396  0.54247184  0.09728951    -0.02380
C4023       C  0.82668152  0.53116923  0.11802585     0.07550
C4024       C  0.79526290  0.51653368  0.12330495    -0.02570
Br4025     Br  0.78217824  0.00846666  0.15264151    -0.01120
Br4026     Br  0.73324892  0.97196194  0.11423958    -0.01190
Br4027     Br  0.87681312  0.55524190  0.08727352    -0.01150
Br4028     Br  0.83470738  0.58119814  0.06571096    -0.01140
C4029       C  0.74394519  0.54921174  0.10014081    -0.02260
C4030       C  0.73050772  0.52234204  0.08615068     0.07420
C4031       C  0.69784468  0.49928159  0.08997201    -0.02370
C4032       C  0.68042652  0.50558658  0.10460781    -0.02380
C4033       C  0.69533244  0.53070243  0.11855995     0.07550
C4034       C  0.72723178  0.55140426  0.11701095    -0.02570
Br4035     Br  0.74827295  0.58336716  0.13852102    -0.01120
Br4036     Br  0.78422984  0.58642474  0.09605394    -0.01190
Br4037     Br  0.63560435  0.47926396  0.10644455    -0.01150
Br4038     Br  0.67508370  0.45590084  0.08064099    -0.01140
C4039       C  0.73443180  0.93482425  0.04902026    -0.02260
C4040       C  0.71105184  0.92846346  0.03405753     0.07420
C4041       C  0.70257502  0.95098993  0.03013372    -0.02370
C4042       C  0.71503606  0.97846805  0.04237043    -0.02380
C4043       C  0.73793014  0.98538300  0.05898208     0.07550
C4044       C  0.74780900  0.96232152  0.06152702    -0.02570
Br4045     Br  0.78282554  0.96655469  0.07840937    -0.01120
Br4046     Br  0.75061092  0.90662345  0.05072201    -0.01190
Br4047     Br  0.69536449  0.00291425  0.03679067    -0.01150
Br4048     Br  0.67552900  0.94560209  0.00615557    -0.01140
C4049       C  0.93677453  0.74837565  0.02208693    -0.02260
C4050       C  0.91271993  0.71699660  0.02108149     0.07420
C4051       C  0.91267531  0.69592957  0.03581731    -0.02370
C4052       C  0.93878119  0.70400711  0.04885553    -0.02380
C4053       C  0.96347391  0.73674711  0.05184677     0.07550
C4054       C  0.96210664  0.75802612  0.03656840    -0.02570
Br4055     Br  0.99752658  0.79760500  0.02898640    -0.01120
Br4056     Br  0.93588705  0.77821047  0.00233024    -0.01190
Br4057     Br  0.94081935  0.66643576  0.05588892    -0.01150
Br4058     Br  0.87536465  0.65536765  0.03857675    -0.01140
C4059       C  0.49523870  0.80236098  0.07968657    -0.02260
C4060       C  0.99318008  0.77353026  0.08591040     0.07420
C4061       C  0.98999415  0.76848952  0.10876929    -0.02370
C4062       C  0.97576575  0.78126648  0.12091425    -0.02380
C4063       C  0.97204558  0.80550002  0.11286500     0.07550
C4064       C  0.48087094  0.81535941  0.09187028    -0.02570
Br4065     Br  0.47854744  0.85060973  0.08097853    -0.01120
Br4066     Br  0.53469144  0.83575374  0.06941339    -0.01190
Br4067     Br  0.95979860  0.76445441  0.14882446    -0.01150
Br4068     Br  0.00829676  0.74924676  0.12638738    -0.01140
C4069       C  0.50338737  0.70463238  0.08585517    -0.02260
C4070       C  0.98401861  0.71850400  0.08333152     0.07420
C4071       C  0.95564697  0.70469301  0.09580935    -0.02370
C4072       C  0.95005344  0.68231507  0.11159188    -0.02380
C4073       C  0.97134842  0.67221783  0.11521378     0.07550
C4074       C  0.49694669  0.68212996  0.10193059    -0.02570
Br4075     Br  0.52293247  0.66371467  0.10595967    -0.01120
Br4076     Br  0.53750605  0.71182801  0.06779912    -0.01190
Br4077     Br  0.91446226  0.66779045  0.13009503    -0.01150
Br4078     Br  0.92386243  0.71672989  0.09319125    -0.01140
C4079       C  0.55400082  0.78403865  0.06535903    -0.02260
C4080       C  0.52390010  0.76176986  0.05646067     0.07420
C4081       C  0.52503415  0.75239262  0.03495727    -0.02370
C4082       C  0.55198249  0.76874797  0.02257214    -0.02380
C4083       C  0.57992678  0.79179762  0.03142673     0.07550
C4084       C  0.58111222  0.79922998  0.05273414    -0.02570
Br4085     Br  0.62096016  0.83064841  0.06433678    -0.01120
Br4086     Br  0.56237103  0.79270897  0.09493154    -0.01190
Br4087     Br  0.55084810  0.75947902  0.99279416    -0.01150
Br4088     Br  0.49418372  0.71373480  0.02194525    -0.01140
C4089       C  0.78433874  0.75364101  0.03055507    -0.02260
C4090       C  0.77057933  0.73589300  0.04973329     0.07420
C4091       C  0.76572328  0.70444804  0.04955492    -0.02370
C4092       C  0.78220390  0.69679658  0.03532034    -0.02380
C4093       C  0.79217878  0.71278100  0.01605993     0.07550
C4094       C  0.79106742  0.74027192  0.01330091    -0.02570
Br4095     Br  0.79826130  0.75974208  0.98575114    -0.01120
Br4096     Br  0.79867771  0.79755003  0.02692257    -0.01190
Br4097     Br  0.79424685  0.66692855  0.04383172    -0.01150
Br4098     Br  0.73217819  0.66699688  0.06274688    -0.01140
C4099       C  0.78012297  0.78940582  0.10001691    -0.02260
C4100       C  0.78683583  0.77510024  0.08251982     0.07420
C4101       C  0.81849572  0.78156545  0.08213271    -0.02370
C4102       C  0.83700118  0.79319149  0.10050214    -0.02380
C4103       C  0.83221572  0.81211543  0.11470527     0.07550
C4104       C  0.80441663  0.81252640  0.11242014    -0.02570
Br4105     Br  0.80019977  0.84665993  0.12326025    -0.01120
Br4106     Br  0.73933104  0.78100631  0.10795206    -0.01190
Br4107     Br  0.86245512  0.77522231  0.10832112    -0.01150
Br4108     Br  0.83940167  0.77285451  0.05988715    -0.01140
C4109       C  0.70507330  0.71144861  0.08821385    -0.02260
C4110       C  0.73809962  0.72384120  0.08492069     0.07420
C4111       C  0.75265060  0.71261131  0.09992361    -0.02370
C4112       C  0.73679479  0.69499652  0.11780952    -0.02380
C4113       C  0.70463314  0.68071992  0.11859585     0.07550
C4114       C  0.68871778  0.68676337  0.10267109    -0.02570
Br4115     Br  0.64415166  0.65964525  0.09992548    -0.01120
Br4116     Br  0.67944734  0.72829462  0.07833159    -0.01190
Br4117     Br  0.75882819  0.68845590  0.14094510    -0.01150
Br4118     Br  0.79149141  0.71375803  0.09568676    -0.01140
C4119       C  0.71843050  0.74733793  0.03981237    -0.02260
C4120       C  0.74171266  0.76495982  0.05580986     0.07420
C4121       C  0.74816311  0.79664620  0.05879195    -0.02370
C4122       C  0.72748083  0.80554982  0.05116433    -0.02380
C4123       C  0.70865979  0.79071753  0.03377889     0.07550
C4124       C  0.70320498  0.76059683  0.02843413    -0.02570
Br4125     Br  0.67285500  0.73526937  0.00676314    -0.01120
Br4126     Br  0.70356084  0.70370068  0.03378967    -0.01190
Br4127     Br  0.72033901  0.83344443  0.06776360    -0.01150
Br4128     Br  0.78763652  0.83390787  0.06565720    -0.01140
loop_ 
_geom_bond_atom_site_label_1 
_geom_bond_atom_site_label_2 
_geom_bond_distance 
_geom_bond_site_symmetry_2 
_ccdc_geom_bond_type 
C1          C994   1.602       .  S
C1         C1004   1.594       .  S
C1         C1014   1.597       .  S
C1         C1024   1.595       .  S
C2          C957   1.635       .  S
C2          C964   1.636       .  S
C2          C974   1.579       .  S
C2         C3048   1.608       .  S
C3          C914   1.618       .  S
C3          C924   1.604       .  S
C3          C934   1.600       .  S
C3         C1979   1.607   1_545  S
O4           C19   1.272       .  A
O4          Al12   1.938   1_554  S
C5           O15   1.256       .  A
C5            O6   1.249       .  A
C5          C894   1.471       .  S
O6           Al8   1.864       .  S
O7            C9   1.260       .  A
O7           Al8   1.904       .  S
Al8          O16   1.905   1_556  S
Al8          O18   1.857   1_556  S
Al8          O17   1.785       .  S
C9           O22   1.255       .  A
C9          C904   1.476       .  S
O10          C20   1.263       .  A
O10         Al12   1.910       .  S
O11          C24   1.260       .  A
O11         Al21   1.903   1_554  S
Al12         O25   1.903   1_556  S
Al12         O22   1.901       .  S
Al12         O17   1.801       .  S
O13          C20   1.259       .  A
O13         Al21   1.899       .  S
O14          C23   1.259       .  A
O14         Al21   1.908   1_554  S
O15         Al21   1.891       .  S
O16          C23   1.262       .  A
O17         Al21   1.791       .  S
O18          C19   1.249       .  A
C19        C1027   1.492       .  S
C20         C884   1.477       .  S
C23         C987   1.478       .  S
C24          O25   1.259       .  A
C24         C944   1.489       .  S
C26         C877   1.490       .  S
C26          C27   1.404       .  A
C26          C31   1.404       .  A
C27          C28   1.406       .  A
C27          H32   1.082       .  S
C28          C37   1.488       .  S
C28          C29   1.402       .  A
C29          C30   1.396       .  A
C29          H33   1.081       .  S
C30        C1017   1.472       .  S
C30          C31   1.398       .  A
C31          H34   1.083       .  S
C35         C867   1.484       .  S
C35          C40   1.403       .  A
C35        C1068   1.400       .  A
C36          C37   1.406       .  A
C36        C1067   1.400       .  A
C36          H41   1.082       .  S
C37          C38   1.404       .  A
C38          C39   1.399       .  A
C38          H42   1.082       .  S
C39         C937   1.475       .  S
C39        C1072   1.401       .  A
C40        C1071   1.401       .  A
C40          H43   1.083       .  S
C44         C854   1.465   1_655  S
C44          C49   1.395       .  A
C44        C2109   1.389       .  A
C45          C46   1.403       .  A
C45        C2108   1.389       .  A
C45          H50   1.081       .  S
C46          C57   1.495       .  S
C46          C47   1.421       .  A
C47          C48   1.404       .  A
C47          H51   1.073       .  S
C48         C967   1.492       .  S
C48        C2113   1.402       .  A
C49        C2112   1.402       .  A
C49          H52   1.084   1_655  S
C53        C1007   1.503       .  S
C53          C54   1.411       .  A
C53          C58   1.404       .  A
C54          C55   1.404       .  A
C54          H59   1.074       .  S
C55         C844   1.499       .  S
C55          C56   1.400       .  A
C56          C57   1.412       .  A
C56          H60   1.080       .  S
C57          C58   1.401       .  A
C58          H61   1.081       .  S
C62         C814   1.625       .  S
C62         C827   1.588       .  S
C62         C837   1.583       .  S
C62         C847   1.609       .  S
C63         C784   1.593       .  S
C63         C797   1.622       .  S
C63         C804   1.607       .  S
C63         C874   1.604       .  S
C64         C764   1.613       .  S
C64         C777   1.617       .  S
C64         C857   1.613       .  S
C64         C864   1.612       .  S
O65          C80   1.264       .  A
O65         Al73   1.923       .  S
C66          O76   1.263       .  A
C66          O67   1.265       .  A
C66         C754   1.478       .  S
O67         Al69   1.905       .  S
O68          C70   1.255       .  A
O68         Al69   1.906       .  S
Al69         O77   1.884       .  S
Al69         O79   1.904       .  S
Al69         O78   1.785       .  S
C70          O83   1.255       .  A
C70         C747   1.473       .  S
O71          C81   1.262       .  A
O71         Al73   1.901       .  S
O72          C85   1.258       .  A
O72         Al82   1.904       .  S
Al73         O86   1.902       .  S
Al73         O83   1.884       .  S
Al73         O78   1.786       .  S
O74          C81   1.259       .  A
O74         Al82   1.899       .  S
O75          C84   1.262       .  A
O75         Al82   1.921       .  S
O76         Al82   1.913       .  S
O77          C84   1.252       .  A
O78         Al82   1.796       .  S
O79          C80   1.265       .  A
C80         C807   1.498       .  S
C81         C734   1.482       .  S
C84         C834   1.506       .  S
C85          O86   1.259       .  A
C85         C774   1.477       .  S
C87        C2858   1.470       .  S
C87          C92   1.396       .  A
C87        C2152   1.401       .  A
C88        C2151   1.401       .  A
C88        C2153   1.404       .  A
C88          H93   1.084   1_655  S
C89         C977   1.475       .  S
C89          C90   1.395       .  A
C89        C2152   1.404       .  A
C90          C91   1.402       .  A
C90          H94   1.083       .  S
C91         C100   1.480       .  S
C91          C92   1.401       .  A
C92          H95   1.082       .  S
C96        C1856   1.478   1_545  S
C96          C97   1.404       .  A
C96         C101   1.395       .  A
C97          C98   1.403       .  A
C97        H1134   1.083   1_545  S
C98         C927   1.486       .  S
C98          C99   1.397       .  A
C99         C100   1.403       .  A
C99         H103   1.082       .  S
C100        C101   1.404       .  A
C101        H104   1.082       .  S
H102       C1129   1.083       .  S
C105        C694   1.609       .  S
C105        C704   1.602       .  S
C105        C714   1.598       .  S
C105        C724   1.601       .  S
C106        C654   1.584       .  S
C106        C664   1.614       .  S
C106        C674   1.627       .  S
C106        C684   1.602       .  S
C107        C614   1.634       .  S
C107        C624   1.591       .  S
C107        C637   1.586       .  S
C107        C647   1.620       .  S
O108        C123   1.266       .  A
O108      Al1148   1.906   1_545  S
C109        O119   1.256       .  A
C109        O110   1.260       .  A
C109        C594   1.474       .  S
O110      Al2176   1.914       .  S
O111        C113   1.254       .  A
O111       Al112   1.882       .  S
Al112       O122   1.930       .  S
Al112      O2174   1.914   1_455  S
Al112      O2184   1.915       .  S
Al112      O2185   1.787       .  S
C113        O126   1.257       .  A
C113        C584   1.472       .  S
O114        C124   1.260       .  A
O114      Al2180   1.912       .  S
O115        C128   1.263       .  A
O115       Al125   1.897       .  S
Al116      O1140   1.906       .  S
Al116      O2178   1.912       .  S
Al116      O2193   1.915   1_455  S
Al116      O1158   1.907       .  S
Al116      O3217   1.786       .  S
O117        C124   1.264       .  A
O117       Al125   1.939       .  S
O118        C127   1.267       .  A
O118      Al1157   1.943   1_545  S
O119      Al1157   1.889   1_545  S
O120        C127   1.261       .  A
O120      Al2176   1.915       .  S
O121      Al2176   1.787       .  S
O121      Al3212   1.786   1_545  S
O121      Al1157   1.792   1_545  S
O122        C123   1.265       .  A
C123        C644   1.491       .  S
C124        C604   1.511       .  S
Al125      O1150   1.943       .  S
Al125      O1151   1.889       .  S
Al125      O1153   1.792       .  S
O126      Al1148   1.907   1_545  S
C127        C687   1.497       .  S
C128        O129   1.264       .  A
C128        C727   1.499       .  S
O129      Al2180   1.915       .  S
C130        C577   1.501       .  S
C130        C131   1.417       .  A
C130        C135   1.400       .  A
C131        C132   1.422       .  A
C131        H136   1.080       .  S
C132       C1173   1.513       .  S
C132        C133   1.408       .  A
C133        C134   1.394       .  A
C133       H1169   1.078       .  S
C134       C1666   1.472       .  S
C134        C135   1.394       .  A
C135        H138   1.084       .  S
H137       C1165   1.078       .  S
C139        C677   1.498       .  S
C139        C140   1.409   1_545  A
C139        C144   1.402   1_545  A
C140        C141   1.416       .  A
C140        H145   1.079   1_565  S
C141       C1164   1.513       .  S
C141        C142   1.407       .  A
C142        C143   1.406       .  A
C142       H1178   1.080       .  S
C143       C1596   1.483       .  S
C143        C144   1.404       .  A
C144        H147   1.083   1_565  S
H146       C1174   1.080       .  S
C148        C667   1.478       .  S
C148        C149   1.393       .  A
C148        C153   1.404       .  A
C149        C150   1.400       .  A
C149        H154   1.083       .  S
C150       C2618   1.487       .  S
C150        C151   1.408       .  A
C151        C152   1.407       .  A
C151       H2219   1.081       .  S
C152       C2225   1.508       .  S
C152        C153   1.414       .  A
C153        H156   1.079       .  S
H155       C2215   1.081       .  S
C157        C544   1.487       .  S
C157        C158   1.399       .  A
C157        C162   1.406       .  A
C158        C159   1.399   1_455  A
C158        H163   1.084       .  S
C159       C2781   1.480       .  S
C159        C160   1.402       .  A
C160        C161   1.409       .  A
C160       H2228   1.079       .  S
C161       C2216   1.508       .  S
C161        C162   1.417   1_655  A
C162        H165   1.080       .  S
H164       C2224   1.079       .  S
C166        C707   1.482       .  S
C166        C167   1.394       .  A
C166        C171   1.404       .  A
C167        C168   1.404       .  A
C167        H172   1.079       .  S
C168        C177   1.512       .  S
C168        C169   1.414       .  A
C169        C170   1.417       .  A
C169        H173   1.078       .  S
C170        C534   1.520       .  S
C170        C171   1.410       .  A
C171        H174   1.079       .  S
C175        C627   1.472       .  S
C175        C176   1.398       .  A
C175        C180   1.392       .  A
C176        C177   1.418       .  A
C176        H181   1.079       .  S
C177        C178   1.417       .  A
C178        C179   1.404       .  A
C178        H182   1.077       .  S
C179        C524   1.480       .  S
C179        C180   1.393       .  A
C180        H183   1.085       .  S
C184        C514   1.618       .  S
C184        C547   1.611       .  S
C184        C574   1.612       .  S
C184        C737   1.608       .  S
C185        C504   1.645       .  S
C185        C527   1.605       .  S
C185        C557   1.570       .  S
C185        C744   1.614       .  S
C186        C494   1.617       .  S
C186        C537   1.610       .  S
C186        C567   1.608       .  S
C186        C757   1.610       .  S
O187        C202   1.267       .  A
O187      Al2259   1.934   1_455  S
C188        O189   1.268       .  A
C188       O2262   1.265       .  A
C188        C767   1.500       .  S
O189      Al1223   1.919       .  S
O190        C192   1.257       .  A
O190       Al191   1.910       .  S
Al191       O199   1.919   1_545  S
Al191       O201   1.931       .  S
Al191      O1221   1.919       .  S
Al191       O200   1.785       .  S
C192        O205   1.261       .  A
C192        C787   1.500       .  S
O193       C1235   1.259   1_545  A
O193       Al195   1.916       .  S
O194        C207   1.264       .  A
O194       Al204   1.912       .  S
Al195      O2251   1.934       .  S
Al195      O1240   1.912       .  S
Al195      O2269   1.915       .  S
Al195      O2264   1.786       .  S
O196        C203   1.257       .  A
O196       Al204   1.907       .  S
O197        C206   1.262   1_655  A
O197      Al2268   1.920       .  S
O198       C2252   1.265       .  A
O198       Al204   1.923       .  S
O199       C1238   1.260       .  A
O200      Al2259   1.786   1_455  S
O200      Al3300   1.791   1_445  S
O201        C202   1.270       .  A
C202        C507   1.510       .  S
C203       O1225   1.259       .  A
C203        C817   1.486       .  S
Al204      O2261   1.920       .  S
Al204      O3296   1.791       .  S
O205      Al2259   1.915   1_455  S
C206       O1231   1.260       .  A
C206        C517   1.497       .  S
C207        O208   1.264       .  A
C207        C497   1.491       .  S
O208      Al1227   1.911       .  S
C209        C464   1.619       .  S
C209        C474   1.581       .  S
C209        C484   1.608       .  S
C209        C607   1.625       .  S
C210        C434   1.601       .  S
C210        C444   1.607       .  S
C210        C454   1.614       .  S
C210        C587   1.584       .  S
C211        C404   1.603       .  S
C211        C414   1.614       .  S
C211        C427   1.608       .  S
C211        C597   1.629       .  S
O212        C227   1.264       .  A
O212       Al220   1.907       .  S
C213        O223   1.259       .  A
C213        O214   1.257       .  A
C213        C697   1.506       .  S
O214       Al216   1.908       .  S
O215        C217   1.262       .  A
O215       Al216   1.917       .  S
Al216       O224   1.912       .  S
Al216       O226   1.909       .  S
Al216       O225   1.784       .  S
C217        O230   1.261       .  A
C217        C617   1.515       .  S
O218        C228   1.260       .  A
O218       Al220   1.900       .  S
O219        C232   1.260       .  A
O219       Al229   1.904       .  S
Al220       O233   1.932       .  S
Al220       O230   1.916       .  S
Al220       O225   1.786       .  S
O221        C228   1.263       .  A
O221       Al229   1.911       .  S
O222        C231   1.259       .  A
O222       Al229   1.898       .  S
O223       Al229   1.895       .  S
O224        C231   1.265       .  A
O225       Al229   1.774       .  S
O226        C227   1.263       .  A
C227        C457   1.479       .  S
C228        C657   1.474       .  S
C231        C487   1.479       .  S
C232        O233   1.263       .  A
C232        C424   1.498       .  S
C234        C394   1.487       .  S
C234        C239   1.408       .  A
C234       C1267   1.401       .  A
C235        C236   1.395       .  A
C235       C1266   1.401       .  A
C235        H240   1.083   1_565  S
C236        C407   1.477   1_565  S
C236       C1269   1.396       .  A
C237        C238   1.405       .  A
C237       C1268   1.396       .  A
C237        H241   1.081       .  S
C238        C245   1.493       .  S
C238        C239   1.409       .  A
C239        H242   1.082       .  S
C243        C477   1.480       .  S
C243        C244   1.398       .  A
C243        C248   1.400       .  A
C244        C245   1.405       .  A
C244        H249   1.081       .  S
C245        C246   1.405       .  A
C246        C247   1.407       .  A
C246        H250   1.082       .  S
C247        C384   1.487       .  S
C247        C248   1.403       .  A
C248        H251   1.083       .  S
C252        C437   1.480   1_565  S
C252        C253   1.399       .  A
C252       C1289   1.403       .  A
C253       C1286   1.397       .  A
C253        H258   1.084   1_565  S
C254        C374   1.491       .  S
C254        C255   1.405       .  A
C254       C1285   1.397       .  A
C255        C256   1.419       .  A
C255        H259   1.080       .  S
C256        C265   1.510       .  S
C256        C257   1.414       .  A
C257       C1284   1.403       .  A
C257        H260   1.080       .  S
C261       C2531   1.483   1_455  S
C261        C266   1.406       .  A
C261       C2326   1.406       .  A
C262       C2325   1.406       .  A
C262       C2327   1.402       .  A
C262        H267   1.083       .  S
C263        C364   1.497       .  S
C263        C264   1.407       .  A
C263       C2326   1.402       .  A
C264        C265   1.410       .  A
C264        H268   1.080       .  S
C265        C266   1.414       .  A
C266        H269   1.080       .  S
C270        C447   1.489       .  S
C270        C271   1.398       .  A
C270        C275   1.397       .  A
C271        C272   1.405       .  A
C271        H276   1.081       .  S
C272        C283   1.499       .  S
C272        C273   1.410       .  A
C273        C274   1.414       .  A
C273        H277   1.074       .  S
C274        C354   1.518       .  S
C274        C275   1.415       .  A
C275        H278   1.077       .  S
C279        C344   1.483       .  S
C279        C284   1.401       .  A
C279       C2344   1.398       .  A
C280        C281   1.409       .  A
C280       C2343   1.398       .  A
C280        H285   1.082       .  S
C281        C417   1.502       .  S
C281       C2346   1.410       .  A
C282        C283   1.409       .  A
C282       C2345   1.410       .  A
C282        H286   1.082       .  S
C283        C284   1.406       .  A
C284        H287   1.080       .  S
C288        C334   1.578       .  S
C288        C357   1.600       .  S
C288        C387   1.621       .  S
C288        C907   1.617       .  S
C289        C377   1.609       .  S
C289        C397   1.599       .  S
C289        C887   1.604       .  S
C289       C1356   1.611       .  S
C290        C347   1.611       .  S
C290        C367   1.623       .  S
C290        C897   1.581       .  S
C290       C2381   1.604   1_455  S
O291        C306   1.265       .  A
O291       Al299   1.907       .  S
C292        O302   1.257   1_554  A
C292        O293   1.269   1_554  A
C292        C954   1.500       .  S
O293       Al295   1.937       .  S
O294        C296   1.262       .  A
O294       Al295   1.916       .  S
Al295       O303   1.921       .  S
Al295       O305   1.935       .  S
Al295       O304   1.780       .  S
C296        O309   1.254       .  A
C296        C917   1.494   1_556  S
O297        C307   1.262       .  A
O297       Al299   1.900       .  S
O298        C311   1.259       .  A
O298       Al308   1.904       .  S
Al299       O312   1.901       .  S
Al299       O309   1.899       .  S
Al299       O304   1.785       .  S
O300        C307   1.264       .  A
O300       Al308   1.917       .  S
O301        C310   1.262       .  A
O301       Al308   1.920       .  S
O302       Al308   1.898       .  S
O303        C310   1.263       .  A
O304       Al308   1.791       .  S
O305        C306   1.268       .  A
C306        C327   1.490       .  S
C307        C997   1.486   1_556  S
C310        C314   1.488       .  S
C311        O312   1.260       .  A
C311        C337   1.480       .  S
C313        C314   1.410       .  A
C313        C318   1.430       .  A
C313       Br320   1.926       .  S
C314        C315   1.393       .  A
C315        C316   1.398       .  A
C315       Br322   1.934       .  S
C316        C317   1.446       .  A
C316       Br321   1.937       .  S
C317       C2354   1.604       .  S
C317        C318   1.440       .  A
C318       Br319   1.940       .  S
C323        C324   1.450       .  A
C323        C328   1.413       .  A
C323       Br330   1.934       .  S
C324       C1321   1.611   1_545  S
C324        C325   1.462       .  A
C325        C326   1.421       .  A
C325       Br332   1.950       .  S
C326        C327   1.398       .  A
C326       Br331   1.939       .  S
C327        C328   1.400       .  A
C328       Br329   1.940       .  S
C333        C334   1.445       .  A
C333        C338   1.412       .  A
C333       Br340   1.940       .  S
C334        C335   1.443       .  A
C335        C336   1.407       .  A
C335       Br342   1.942       .  S
C336        C337   1.402       .  A
C336       Br341   1.940       .  S
C337        C338   1.404       .  A
C338       Br339   1.939       .  S
C343        C344   1.390       .  A
C343        C348   1.403       .  A
C343       Br350   1.938       .  S
C344       C2409   1.403       .  A
C345        C346   1.420       .  A
C345       C2408   1.403       .  A
C345       Br352   1.939       .  S
C346       C2411   1.453       .  A
C346       Br351   1.944       .  S
C347        C348   1.450       .  A
C347       C2410   1.453       .  A
C348       Br349   1.940       .  S
C353        C354   1.419       .  A
C353        C358   1.410       .  A
C353       Br360   1.936       .  S
C354        C355   1.410       .  A
C355        C356   1.412       .  A
C355       Br362   1.942       .  S
C356        C357   1.439       .  A
C356       Br361   1.910       .  S
C357        C358   1.440       .  A
C358       Br359   1.939       .  S
C363        C368   1.429       .  A
C363       C2428   1.413       .  A
C363       Br370   1.935       .  S
C364        C365   1.401       .  A
C364       C2427   1.413   1_455  A
C365        C366   1.395       .  A
C365       Br372   1.938       .  S
C366        C367   1.425       .  A
C366       Br371   1.933       .  S
C367       C2432   1.446   1_455  A
C368       C2431   1.446       .  A
C368       Br369   1.940       .  S
C373        C374   1.401       .  A
C373        C378   1.414       .  A
C373       Br380   1.937       .  S
C374        C375   1.396       .  A
C375        C376   1.410       .  A
C375       Br382   1.940       .  S
C376        C377   1.458       .  A
C376       Br381   1.940       .  S
C377        C378   1.454       .  A
C378       Br379   1.945       .  S
C383        C384   1.409       .  A
C383        C388   1.429       .  A
C383       Br390   1.943       .  S
C384        C385   1.399       .  A
C385        C386   1.389       .  A
C385       Br392   1.931       .  S
C386        C387   1.412       .  A
C386       Br391   1.932       .  S
C387        C388   1.468       .  A
C388       Br389   1.948       .  S
C393        C398   1.402   1_565  A
C393       C1426   1.398       .  A
C393       Br400   1.939   1_565  S
C394        C395   1.403       .  A
C394       C1425   1.398       .  A
C395        C396   1.411       .  A
C395       Br402   1.942       .  S
C396        C397   1.457       .  A
C396       Br401   1.940       .  S
C397       C1430   1.449       .  A
C398       C1429   1.449   1_545  A
C398       Br399   1.933       .  S
C403        C404   1.460       .  A
C403        C408   1.405       .  A
C403       Br410   1.955       .  S
C404        C405   1.443       .  A
C405        C406   1.413       .  A
C405       Br412   1.925       .  S
C406        C407   1.403       .  A
C406       Br411   1.943   1_545  S
C407        C408   1.393       .  A
C408       Br409   1.945       .  S
C413        C414   1.454       .  A
C413        C418   1.424       .  A
C413      Br2484   1.933       .  S
C414        C415   1.452       .  A
C415        C416   1.402       .  A
C415       Br422   1.926       .  S
C416        C417   1.403       .  A
C416       Br421   1.944       .  S
C417        C418   1.411       .  A
C418      Br2483   1.940       .  S
Br419      C2482   1.940       .  S
Br420      C2477   1.933   1_455  S
C423        C424   1.405       .  A
C423        C428   1.414       .  A
C423       Br430   1.948       .  S
C424        C425   1.406       .  A
C425        C426   1.425       .  A
C425       Br432   1.942       .  S
C426        C427   1.459       .  A
C426       Br431   1.944       .  S
C427        C428   1.451       .  A
C428       Br429   1.933       .  S
C433        C434   1.446       .  A
C433        C438   1.417       .  A
C433       Br440   1.914       .  S
C434        C435   1.450       .  A
C435        C436   1.405       .  A
C435       Br442   1.942       .  S
C436        C437   1.395       .  A
C436       Br441   1.935       .  S
C437        C438   1.399       .  A
C438      Br1471   1.940   1_545  S
Br439      C1470   1.940       .  S
C443        C444   1.446       .  A
C443        C448   1.385       .  A
C443       Br450   1.937       .  S
C444        C445   1.452       .  A
C445        C446   1.431       .  A
C445       Br452   1.929       .  S
C446        C447   1.409       .  A
C446       Br451   1.934       .  S
C447        C448   1.397       .  A
C448       Br449   1.939       .  S
C453        C454   1.446       .  A
C453        C458   1.393       .  A
C453       Br460   1.951       .  S
C454        C455   1.451       .  A
C455        C456   1.425       .  A
C455       Br462   1.923       .  S
C456        C457   1.402       .  A
C456       Br461   1.934       .  S
C457        C458   1.397       .  A
C458       Br459   1.935       .  S
C463        C464   1.456       .  A
C463        C468   1.398       .  A
C463       Br470   1.950       .  S
C464        C465   1.453       .  A
C465        C466   1.426       .  A
C465       Br472   1.933       .  S
C466        C467   1.400       .  A
C466      Br2535   1.933       .  S
C467       C2325   1.483       .  S
C467        C468   1.391       .  A
C468       Br469   1.942       .  S
Br471      C2530   1.933   1_455  S
C473        C474   1.450       .  A
C473        C478   1.413       .  A
C473       Br480   1.949       .  S
C474        C475   1.445       .  A
C475        C476   1.406       .  A
C475       Br482   1.941       .  S
C476        C477   1.406       .  A
C476       Br481   1.946       .  S
C477        C478   1.399       .  A
C478       Br479   1.937       .  S
C483        C484   1.451       .  A
C483        C488   1.405       .  A
C483       Br490   1.924       .  S
C484        C485   1.455       .  A
C485        C486   1.419       .  A
C485       Br492   1.911       .  S
C486        C487   1.391       .  A
C486       Br491   1.937       .  S
C487        C488   1.394       .  A
C488       Br489   1.938       .  S
C493        C494   1.452       .  A
C493        C498   1.418       .  A
C493       Br500   1.929       .  S
C494        C495   1.461       .  A
C495        C496   1.416       .  A
C495       Br502   1.953       .  S
C496        C497   1.398       .  A
C496       Br501   1.942       .  S
C497        C498   1.401       .  A
C498       Br499   1.945       .  S
C503        C504   1.434       .  A
C503        C508   1.411       .  A
C503       Br510   1.936       .  S
C504        C505   1.466       .  A
C505        C506   1.428       .  A
C505       Br512   1.958       .  S
C506        C507   1.412       .  A
C506      Br2575   1.948   1_455  S
C507        C508   1.406       .  A
C508       Br509   1.930       .  S
Br511      C2570   1.948       .  S
C513        C514   1.460       .  A
C513        C518   1.423       .  A
C513       Br520   1.947       .  S
C514        C515   1.453       .  A
C515        C516   1.418       .  A
C515       Br522   1.929       .  S
C516        C517   1.400       .  A
C516       Br521   1.941       .  S
C517        C518   1.400       .  A
C518      Br1551   1.940       .  S
Br519      C1550   1.940   1_545  S
C523        C524   1.397       .  A
C523        C528   1.400       .  A
C523       Br530   1.947       .  S
C524        C525   1.403       .  A
C525        C526   1.417       .  A
C525       Br532   1.934       .  S
C526        C527   1.446       .  A
C526       Br531   1.949       .  S
C527        C528   1.460       .  A
C528       Br529   1.965       .  S
C533        C534   1.415       .  A
C533        C538   1.415       .  A
C533       Br540   1.933       .  S
C534        C535   1.408       .  A
C535        C536   1.414       .  A
C535       Br542   1.948       .  S
C536        C537   1.450       .  A
C536       Br541   1.931       .  S
C537        C538   1.448       .  A
C538       Br539   1.937       .  S
C543        C544   1.399       .  A
C543        C548   1.419       .  A
C543      Br2614   1.942   1_455  S
C544        C545   1.395       .  A
C545        C546   1.408       .  A
C545       Br552   1.942       .  S
C546        C547   1.458       .  A
C546       Br551   1.944       .  S
C547        C548   1.458       .  A
C548       Br549   1.943       .  S
Br550      C2607   1.942       .  S
C553        C554   1.405       .  A
C553        C558   1.405       .  A
C553       Br560   1.941   1_455  S
C554       C2214   1.487       .  S
C554        C555   1.407       .  A
C555        C556   1.406       .  A
C555       Br562   1.938       .  S
C556        C557   1.449       .  A
C556       Br561   1.938       .  S
C557        C558   1.445       .  A
C558       Br559   1.936       .  S
C563        C564   1.392       .  A
C563        C568   1.398       .  A
C563       Br570   1.945       .  S
C564       C1175   1.483       .  S
C564       C1597   1.398       .  A
C565       C1596   1.398       .  A
C565       C1598   1.422       .  A
C565       Br572   1.939   1_565  S
C566        C567   1.461       .  A
C566       C1597   1.422       .  A
C566       Br571   1.940       .  S
C567        C568   1.455       .  A
C568       Br569   1.939       .  S
C573        C574   1.460       .  A
C573        C578   1.417       .  A
C573       Br580   1.932       .  S
C574        C575   1.447       .  A
C575        C576   1.406       .  A
C575       Br582   1.934       .  S
C576        C577   1.404       .  A
C576       Br581   1.933       .  S
C577        C578   1.403       .  A
C578       Br579   1.941       .  S
C583        C584   1.401       .  A
C583        C588   1.411       .  A
C583      Br1622   1.925   1_545  S
C584        C585   1.396       .  A
C585        C586   1.407       .  A
C585       Br592   1.943       .  S
C586        C587   1.452       .  A
C586       Br591   1.937       .  S
C587        C588   1.444       .  A
C588       Br589   1.948       .  S
Br590      C1615   1.925       .  S
C593        C594   1.388       .  A
C593        C598   1.412       .  A
C593       Br600   1.939       .  S
C594        C595   1.391       .  A
C595        C596   1.420       .  A
C595       Br602   1.944       .  S
C596        C597   1.471       .  A
C596       Br601   1.953       .  S
C597        C598   1.454       .  A
C598       Br599   1.923       .  S
C603        C604   1.415       .  A
C603        C608   1.427       .  A
C603       Br610   1.949       .  S
C604        C605   1.411       .  A
C605        C606   1.410       .  A
C605      Br2676   1.932       .  S
C606        C607   1.437       .  A
C606       Br611   1.935       .  S
C607        C608   1.464       .  A
C608       Br609   1.943       .  S
Br612      C2669   1.932   1_455  S
C613        C614   1.430       .  A
C613        C618   1.401       .  A
C613       Br620   1.945       .  S
C614        C615   1.454       .  A
C615        C616   1.426       .  A
C615       Br622   1.946       .  S
C616        C617   1.416       .  A
C616       Br621   1.943       .  S
C617        C618   1.411       .  A
C618       Br619   1.940       .  S
C623        C624   1.444       .  A
C623        C628   1.388       .  A
C623       Br630   1.943       .  S
C624        C625   1.437       .  A
C625        C626   1.423       .  A
C625       Br632   1.941       .  S
C626        C627   1.411       .  A
C626       Br631   1.928       .  S
C627        C628   1.390       .  A
C628       Br629   1.939       .  S
C633        C634   1.392       .  A
C633        C638   1.401       .  A
C633       Br640   1.943       .  S
C634       C1166   1.472       .  S
C634        C635   1.397       .  A
C635        C636   1.408       .  A
C635      Br1674   1.933   1_545  S
C636        C637   1.449       .  A
C636       Br641   1.943       .  S
C637        C638   1.451       .  A
C638       Br639   1.926       .  S
Br642      C1667   1.933       .  S
C643        C644   1.397       .  A
C643        C648   1.421       .  A
C643       Br650   1.940       .  S
C644        C645   1.398       .  A
C645        C646   1.413       .  A
C645      Br1684   1.937       .  S
C646        C647   1.446       .  A
C646       Br651   1.929       .  S
C647        C648   1.459       .  A
C648       Br649   1.940       .  S
Br652      C1677   1.937       .  S
C653        C654   1.445       .  A
C653        C658   1.415       .  A
C653       Br660   1.917       .  S
C654        C655   1.442       .  A
C655        C656   1.401       .  A
C655       Br662   1.940       .  S
C656        C657   1.393       .  A
C656       Br661   1.927       .  S
C657        C658   1.398       .  A
C658       Br659   1.936       .  S
C663        C664   1.446       .  A
C663        C668   1.404       .  A
C663       Br670   1.933       .  S
C664        C665   1.457       .  A
C665        C666   1.416       .  A
C665       Br672   1.942       .  S
C666        C667   1.400       .  A
C666      Br2735   1.944       .  S
C667        C668   1.389       .  A
C668       Br669   1.935       .  S
Br671      C2730   1.944   1_455  S
C673        C674   1.426       .  A
C673        C678   1.396       .  A
C673       Br680   1.936       .  S
C674        C675   1.452       .  A
C675        C676   1.430       .  A
C675       Br682   1.940       .  S
C676        C677   1.410       .  A
C676      Br1713   1.936   1_545  S
C677        C678   1.400       .  A
C678       Br679   1.933       .  S
Br681      C1708   1.936       .  S
C683        C684   1.446       .  A
C683        C688   1.424       .  A
C683       Br690   1.943       .  S
C684        C685   1.458       .  A
C685        C686   1.415       .  A
C685       Br692   1.951       .  S
C686        C687   1.399       .  A
C686       Br691   1.941       .  S
C687        C688   1.401       .  A
C688       Br689   1.924       .  S
C693        C694   1.450       .  A
C693        C698   1.419       .  A
C693       Br700   1.942       .  S
C694        C695   1.462       .  A
C695        C696   1.413       .  A
C695       Br702   1.955       .  S
C696        C697   1.401       .  A
C696       Br701   1.952       .  S
C697        C698   1.412       .  A
C698       Br699   1.947       .  S
C703        C704   1.448       .  A
C703        C708   1.392       .  A
C703       Br710   1.931       .  S
C704        C705   1.459       .  A
C705        C706   1.415       .  A
C705       Br712   1.941       .  S
C706        C707   1.401       .  A
C706       Br711   1.936       .  S
C707        C708   1.393       .  A
C708       Br709   1.930       .  S
C713        C714   1.459       .  A
C713        C718   1.415       .  A
C713       Br720   1.948       .  S
C714        C715   1.451       .  A
C715        C716   1.404       .  A
C715       Br722   1.937       .  S
C716        C717   1.397       .  A
C716       Br721   1.942       .  S
C717       C2223   1.480       .  S
C717        C718   1.398       .  A
C718      Br2783   1.940       .  S
Br719      C2782   1.940   1_455  S
C723        C724   1.445       .  A
C723        C728   1.405       .  A
C723       Br730   1.934       .  S
C724        C725   1.457       .  A
C725        C726   1.417       .  A
C725       Br732   1.948       .  S
C726        C727   1.406       .  A
C726       Br731   1.935       .  S
C727        C728   1.408       .  A
C728      Br2793   1.940       .  S
Br729      C2792   1.940       .  S
C733        C734   1.402       .  A
C733        C738   1.420       .  A
C733       Br740   1.941       .  S
C734        C735   1.394       .  A
C735        C736   1.405       .  A
C735       Br742   1.938       .  S
C736        C737   1.456       .  A
C736       Br741   1.956       .  S
C737        C738   1.452       .  A
C738       Br739   1.937       .  S
C743        C744   1.462       .  A
C743        C748   1.404       .  A
C743       Br750   1.936       .  S
C744        C745   1.448       .  A
C745        C746   1.420       .  A
C745       Br752   1.914       .  S
C746        C747   1.396       .  A
C746       Br751   1.940       .  S
C747        C748   1.386       .  A
C748       Br749   1.942       .  S
C753        C754   1.394       .  A
C753        C758   1.413       .  A
C753       Br760   1.936       .  S
C754        C755   1.395       .  A
C755        C756   1.411       .  A
C755       Br762   1.934       .  S
C756        C757   1.457       .  A
C756       Br761   1.957       .  S
C757        C758   1.453       .  A
C758       Br759   1.927       .  S
C763        C764   1.456       .  A
C763        C768   1.425       .  A
C763       Br770   1.937   1_455  S
C764        C765   1.454       .  A
C765        C766   1.415       .  A
C765       Br772   1.928       .  S
C766        C767   1.399       .  A
C766      Br1803   1.947       .  S
C767        C768   1.409       .  A
C768      Br2833   1.937   1_455  S
Br769      C2832   1.937       .  S
Br771      C1798   1.947   1_545  S
C773        C774   1.394       .  A
C773        C778   1.410       .  A
C773       Br780   1.939       .  S
C774        C775   1.391       .  A
C775        C776   1.419       .  A
C775       Br782   1.938       .  S
C776        C777   1.451       .  A
C776       Br781   1.920       .  S
C777        C778   1.464       .  A
C778       Br779   1.960       .  S
C783        C784   1.396       .  A
C783        C788   1.396       .  A
C783       Br790   1.928       .  S
C784        C785   1.435       .  A
C785        C786   1.430       .  A
C785       Br792   1.925       .  S
C786        C787   1.430       .  A
C786       Br791   1.941       .  S
C787        C788   1.416       .  A
C788      Br2853   1.925   1_455  S
Br789      C2852   1.925       .  S
C793        C794   1.402   1_655  A
C793        C798   1.427   1_655  A
C793      Br2864   1.938       .  S
C794       C2151   1.470   1_455  S
C794        C795   1.390       .  A
C795        C796   1.389       .  A
C795       Br802   1.935       .  S
C796        C797   1.430       .  A
C796       Br801   1.911       .  S
C797        C798   1.451       .  A
C798       Br799   1.927       .  S
Br800      C2857   1.938       .  S
C803        C804   1.425       .  A
C803        C808   1.404       .  A
C803       Br810   1.937       .  S
C804        C805   1.438       .  A
C805        C806   1.419       .  A
C805       Br812   1.942       .  S
C806        C807   1.415       .  A
C806       Br811   1.941       .  S
C807        C808   1.410       .  A
C808       Br809   1.935       .  S
C813        C814   1.457       .  A
C813        C818   1.423       .  A
C813       Br820   1.941       .  S
C814        C815   1.452       .  A
C815        C816   1.409       .  A
C815       Br822   1.949       .  S
C816        C817   1.395       .  A
C816       Br821   1.933       .  S
C817        C818   1.399       .  A
C818       Br819   1.938       .  S
C823        C824   1.392       .  A
C823        C828   1.403       .  A
C823       Br830   1.940       .  S
C824       C1128   1.478       .  S
C824       C1857   1.405       .  A
C825       C1856   1.405       .  A
C825       C1858   1.413       .  A
C825       Br832   1.941   1_565  S
C826        C827   1.443       .  A
C826       C1857   1.413       .  A
C826      Br1863   1.927       .  S
C827        C828   1.444       .  A
C828       Br829   1.921       .  S
Br831      C1858   1.926       .  S
C833        C834   1.412       .  A
C833        C838   1.420       .  A
C833       Br840   1.944       .  S
C834        C835   1.417       .  A
C835        C836   1.407       .  A
C835       Br842   1.943       .  S
C836        C837   1.440       .  A
C836       Br841   1.947       .  S
C837        C838   1.451       .  A
C838       Br839   1.943       .  S
C843        C844   1.409       .  A
C843        C848   1.391       .  A
C843       Br850   1.927       .  S
C844        C845   1.411       .  A
C845        C846   1.423       .  A
C845       Br852   1.935       .  S
C846        C847   1.460       .  A
C846       Br851   1.948       .  S
C847        C848   1.415       .  A
C848       Br849   1.924       .  S
C853        C854   1.400       .  A
C853        C858   1.419       .  A
C853      Br2924   1.937   1_455  S
C854        C855   1.384       .  A
C855        C856   1.391       .  A
C855       Br862   1.940       .  S
C856        C857   1.455       .  A
C856       Br861   1.948       .  S
C857        C858   1.450       .  A
C858       Br859   1.927       .  S
Br860      C2917   1.937       .  S
C863        C864   1.456       .  A
C863        C868   1.424       .  A
C863       Br870   1.937       .  S
C864        C865   1.460       .  A
C865        C866   1.405       .  A
C865       Br872   1.938       .  S
C866        C867   1.397       .  A
C866       Br871   1.958       .  S
C867        C868   1.401       .  A
C868      Br1901   1.940       .  S
Br869      C1900   1.940   1_545  S
C873        C874   1.447       .  A
C873        C878   1.403       .  A
C873       Br880   1.945       .  S
C874        C875   1.444       .  A
C875        C876   1.406       .  A
C875       Br882   1.918       .  S
C876        C877   1.402       .  A
C876       Br881   1.937       .  S
C877        C878   1.404       .  A
C878       Br879   1.936       .  S
C883        C884   1.397       .  A
C883        C888   1.405       .  A
C883       Br890   1.932       .  S
C884        C885   1.396       .  A
C885        C886   1.416       .  A
C885       Br892   1.939       .  S
C886        C887   1.455       .  A
C886       Br891   1.934       .  S
C887        C888   1.455       .  A
C888       Br889   1.956       .  S
C893        C894   1.405       .  A
C893        C898   1.404       .  A
C893       Br900   1.937       .  S
C894        C895   1.399       .  A
C895        C896   1.407       .  A
C895       Br902   1.944       .  S
C896        C897   1.442       .  A
C896       Br901   1.926       .  S
C897        C898   1.443       .  A
C898       Br899   1.952       .  S
C903        C904   1.393       .  A
C903        C908   1.415       .  A
C903       Br910   1.934       .  S
C904        C905   1.389       .  A
C905        C906   1.401       .  A
C905       Br912   1.928       .  S
C906        C907   1.449       .  A
C906       Br911   1.941       .  S
C907        C908   1.457       .  A
C908       Br909   1.942       .  S
C913        C914   1.454       .  A
C913        C918   1.418       .  A
C913       Br920   1.936       .  S
C914        C915   1.465       .  A
C915        C916   1.419       .  A
C915       Br922   1.959       .  S
C916        C917   1.403       .  A
C916       Br921   1.951       .  S
C917        C918   1.397       .  A
C918       Br919   1.944   1_554  S
C923        C924   1.456       .  A
C923        C928   1.403       .  A
C923      Br1962   1.932   1_545  S
C924        C925   1.451       .  A
C925        C926   1.408       .  A
C925       Br932   1.938       .  S
C926        C927   1.405       .  A
C926       Br931   1.939       .  S
C927        C928   1.396       .  A
C928      Br1961   1.938       .  S
Br929      C1960   1.938       .  S
Br930      C1955   1.932       .  S
C933        C934   1.452       .  A
C933        C938   1.400       .  A
C933       Br940   1.937       .  S
C934        C935   1.461   1_545  A
C935        C936   1.417   1_565  A
C935       Br942   1.948       .  S
C936        C937   1.396       .  A
C936       Br941   1.939   1_545  S
C937        C938   1.393       .  A
C938       Br939   1.945       .  S
C943        C944   1.400       .  A
C943        C948   1.419       .  A
C943       Br950   1.938       .  S
C944        C945   1.399       .  A
C945        C946   1.411       .  A
C945       Br952   1.945       .  S
C946        C947   1.451       .  A
C946       Br951   1.935       .  S
C947       C1035   1.607       .  S
C947        C948   1.463       .  A
C948       Br949   1.955       .  S
C953        C954   1.404       .  A
C953        C958   1.425       .  A
C953       Br960   1.943       .  S
C954        C955   1.391       .  A
C955        C956   1.410       .  A
C955       Br962   1.935       .  S
C956        C957   1.470       .  A
C956       Br961   1.962       .  S
C957        C958   1.449       .  A
C958       Br959   1.920       .  S
C963        C968   1.419       .  A
C963       C3028   1.431       .  A
C963       Br970   1.934   1_655  S
C964        C965   1.460       .  A
C964       C3027   1.431       .  A
C965        C966   1.404       .  A
C965       Br972   1.955       .  S
C966        C967   1.395       .  A
C966       Br971   1.942       .  S
C967       C3032   1.406       .  A
C968       C3031   1.406       .  A
C968       Br969   1.928       .  S
C973        C978   1.415   1_455  A
C973       C3038   1.449   1_455  A
C973       Br980   1.936       .  S
C974        C975   1.459       .  A
C974       C3037   1.449       .  A
C975        C976   1.405       .  A
C975       Br982   1.962       .  S
C976        C977   1.401       .  A
C976       Br981   1.943       .  S
C977       C3042   1.399       .  A
C978       C3041   1.399       .  A
C978       Br979   1.940   1_655  S
C983        C984   1.450       .  A
C983        C988   1.419       .  A
C983       Br990   1.915       .  S
C984       C2066   1.608   1_455  S
C984        C985   1.452       .  A
C985        C986   1.409       .  A
C985       Br992   1.931   1_455  S
C986        C987   1.393       .  A
C986       Br991   1.935   1_554  S
C987        C988   1.392       .  A
C988       Br989   1.940       .  S
C993        C994   1.449       .  A
C993        C998   1.410       .  A
C993      Br1000   1.927       .  S
C994        C995   1.451       .  A
C995        C996   1.403       .  A
C995      Br1002   1.948       .  S
C996        C997   1.397       .  A
C996      Br1001   1.928       .  S
C997        C998   1.400       .  A
C998       Br999   1.929   1_554  S
C1003      C1004   1.450       .  A
C1003      C1008   1.408       .  A
C1003     Br1010   1.931       .  S
C1004      C1005   1.444       .  A
C1005      C1006   1.407       .  A
C1005     Br1012   1.938       .  S
C1006      C1007   1.411       .  A
C1006     Br1011   1.942       .  S
C1007      C1008   1.403       .  A
C1008     Br1009   1.940       .  S
C1013      C1014   1.454       .  A
C1013      C1018   1.407       .  A
C1013     Br1020   1.943       .  S
C1014      C1015   1.455       .  A
C1015      C1016   1.403       .  A
C1015     Br1022   1.931       .  S
C1016      C1017   1.388       .  A
C1016     Br1021   1.940       .  S
C1017      C1018   1.396       .  A
C1018     Br1019   1.935       .  S
C1023      C1024   1.447       .  A
C1023      C1028   1.417       .  A
C1023     Br1030   1.938       .  S
C1024      C1025   1.448       .  A
C1025      C1026   1.392       .  A
C1025     Br1032   1.945       .  S
C1026      C1027   1.386       .  A
C1026     Br1031   1.917       .  S
C1027      C1028   1.419       .  A
C1028     Br1029   1.950       .  S
C1033      C2026   1.602       .  S
C1033      C2036   1.594       .  S
C1033      C2046   1.597       .  S
C1033      C2056   1.596       .  S
C1034      C1989   1.635       .  S
C1034      C1996   1.636       .  S
C1034      C2006   1.579       .  S
C1034      C4080   1.607       .  S
C1035      C1946   1.618       .  S
C1035      C1956   1.604       .  S
C1035      C1966   1.600       .  S
O1036      C1051   1.272       .  A
O1036     Al1044   1.938   1_554  S
C1037      O1047   1.256       .  A
C1037      O1038   1.250       .  A
C1037      C1926   1.471       .  S
O1038     Al1040   1.864       .  S
O1039      C1041   1.260       .  A
O1039     Al1040   1.904       .  S
Al1040     O1048   1.905   1_556  S
Al1040     O1050   1.857   1_556  S
Al1040     O1049   1.785       .  S
C1041      O1054   1.255       .  A
C1041      C1936   1.476       .  S
O1042      C1052   1.263       .  A
O1042     Al1044   1.910       .  S
O1043      C1056   1.260       .  A
O1043     Al1053   1.903   1_554  S
Al1044     O1057   1.903   1_556  S
Al1044     O1054   1.901       .  S
Al1044     O1049   1.801       .  S
O1045      C1052   1.259       .  A
O1045     Al1053   1.899       .  S
O1046      C1055   1.259       .  A
O1046     Al1053   1.907   1_554  S
O1047     Al1053   1.891       .  S
O1048      C1055   1.262       .  A
O1049     Al1053   1.791       .  S
O1050      C1051   1.249       .  A
C1051      C2059   1.492       .  S
C1052      C1916   1.477       .  S
C1055      C2019   1.478       .  S
C1056      O1057   1.259       .  A
C1056      C1976   1.489       .  S
C1058      C1909   1.490       .  S
C1058      C1059   1.404       .  A
C1058      C1063   1.404       .  A
C1059      C1060   1.406       .  A
C1059      H1064   1.082       .  S
C1060      C1069   1.488       .  S
C1060      C1061   1.402       .  A
C1061      C1062   1.396       .  A
C1061      H1065   1.081       .  S
C1062      C2049   1.472       .  S
C1062      C1063   1.398       .  A
C1063      H1066   1.083       .  S
C1067      C1899   1.484       .  S
C1067      C1072   1.403       .  A
C1068      C1069   1.406       .  A
C1068      H1073   1.082       .  S
C1069      C1070   1.404       .  A
C1070      C1071   1.399       .  A
C1070      H1074   1.082       .  S
C1071      C1969   1.475       .  S
C1072      H1075   1.083   1_545  S
C1076      C1886   1.465   1_655  S
C1076      C3141   1.389       .  A
C1076      C1081   1.395       .  A
C1077      C3140   1.389       .  A
C1077      C1078   1.402       .  A
C1077      H1082   1.081       .  S
C1078      C1089   1.495       .  S
C1078      C1079   1.421       .  A
C1079      C1080   1.404       .  A
C1079      H1083   1.073       .  S
C1080      C1999   1.492       .  S
C1080      C3145   1.402       .  A
C1081      C3144   1.402       .  A
C1081      H1084   1.084   1_655  S
C1085      C2039   1.503       .  S
C1085      C1086   1.411       .  A
C1085      C1090   1.404       .  A
C1086      C1087   1.404       .  A
C1086      H1091   1.074       .  S
C1087      C1876   1.499       .  S
C1087      C1088   1.400       .  A
C1088      C1089   1.412       .  A
C1088      H1092   1.080       .  S
C1089      C1090   1.401       .  A
C1090      H1093   1.081       .  S
C1094      C1846   1.626       .  S
C1094      C1859   1.589       .  S
C1094      C1869   1.583       .  S
C1094      C1879   1.609       .  S
C1095      C1816   1.593       .  S
C1095      C1829   1.622       .  S
C1095      C1836   1.607       .  S
C1095      C1906   1.604       .  S
C1096      C1796   1.613       .  S
C1096      C1809   1.617       .  S
C1096      C1889   1.613       .  S
C1096      C1896   1.612       .  S
O1097      C1112   1.264       .  A
O1097     Al1105   1.923       .  S
C1098      O1108   1.263       .  A
C1098      O1099   1.265       .  A
C1098      C1786   1.478       .  S
O1099     Al1101   1.905       .  S
O1100      C1102   1.255       .  A
O1100     Al1101   1.906       .  S
Al1101     O1109   1.883       .  S
Al1101     O1111   1.904       .  S
Al1101     O1110   1.785       .  S
C1102      O1115   1.255       .  A
C1102      C1779   1.473       .  S
O1103      C1113   1.262       .  A
O1103     Al1105   1.901       .  S
O1104      C1117   1.258       .  A
O1104     Al1114   1.904       .  S
Al1105     O1118   1.902       .  S
Al1105     O1115   1.884       .  S
Al1105     O1110   1.786       .  S
O1106      C1113   1.259       .  A
O1106     Al1114   1.899       .  S
O1107      C1116   1.262       .  A
O1107     Al1114   1.922       .  S
O1108     Al1114   1.913       .  S
O1109      C1116   1.252       .  A
O1110     Al1114   1.796       .  S
O1111      C1112   1.265       .  A
C1112      C1839   1.498       .  S
C1113      C1766   1.482       .  S
C1116      C1866   1.506       .  S
C1117      O1118   1.259       .  A
C1117      C1806   1.476       .  S
C1119      C3890   1.470       .  S
C1119      C3184   1.401       .  A
C1119      C1124   1.396       .  A
C1120      C3183   1.401       .  A
C1120      C3185   1.404       .  A
C1120      H1125   1.084   1_655  S
C1121      C2009   1.475       .  S
C1121      C3184   1.404       .  A
C1121      C1122   1.395       .  A
C1122      C1123   1.402       .  A
C1122      H1126   1.083       .  S
C1123      C1132   1.480       .  S
C1123      C1124   1.401       .  A
C1124      H1127   1.082       .  S
C1128      C1129   1.404       .  A
C1128      C1133   1.395       .  A
C1129      C1130   1.404       .  A
C1130      C1959   1.486       .  S
C1130      C1131   1.397       .  A
C1131      C1132   1.403       .  A
C1131      H1135   1.082       .  S
C1132      C1133   1.404       .  A
C1133      H1136   1.082       .  S
C1137      C1726   1.609       .  S
C1137      C1736   1.602       .  S
C1137      C1746   1.598       .  S
C1137      C1756   1.601       .  S
C1138      C1686   1.584       .  S
C1138      C1696   1.614       .  S
C1138      C1706   1.627       .  S
C1138      C1716   1.602       .  S
C1139      C1646   1.634       .  S
C1139      C1656   1.591       .  S
C1139      C1669   1.586       .  S
C1139      C1679   1.620       .  S
O1140      C1155   1.266       .  A
C1141      O1151   1.256       .  A
C1141      O1142   1.260       .  A
C1141      C1626   1.474       .  S
O1142     Al3208   1.914       .  S
O1143      C1145   1.254       .  A
O1143     Al1144   1.882       .  S
Al1144     O3206   1.914   1_455  S
Al1144     O3216   1.915       .  S
Al1144     O1154   1.930       .  S
Al1144     O3217   1.787       .  S
C1145      O1158   1.257       .  A
C1145      C1616   1.472       .  S
O1146      C1156   1.260       .  A
O1146     Al3212   1.912       .  S
O1147      C1160   1.263       .  A
O1147     Al1157   1.897       .  S
Al1148     O3210   1.912       .  S
Al1148     O3225   1.915   1_455  S
Al1148     O2185   1.786   1_565  S
O1149      C1156   1.264       .  A
O1149     Al1157   1.939       .  S
O1150      C1159   1.267       .  A
O1152      C1159   1.261       .  A
O1152     Al3208   1.915       .  S
O1153     Al3208   1.787       .  S
O1153     Al2180   1.786       .  S
O1154      C1155   1.265       .  A
C1155      C1676   1.491       .  S
C1156      C1636   1.511       .  S
C1159      C1719   1.496       .  S
C1160      O1161   1.264       .  A
C1160      C1759   1.499       .  S
O1161     Al3212   1.915       .  S
C1162      C1609   1.501       .  S
C1162      C1163   1.417       .  A
C1162      C1167   1.400       .  A
C1163      C1164   1.422       .  A
C1163      H1168   1.080       .  S
C1164      C1165   1.408   1_565  A
C1165      C1166   1.394       .  A
C1166      C1167   1.394   1_545  A
C1167      H1170   1.084   1_565  S
C1171      C1709   1.498       .  S
C1171      C1172   1.409       .  A
C1171      C1176   1.402       .  A
C1172      C1173   1.416       .  A
C1172      H1177   1.079       .  S
C1173      C1174   1.407       .  A
C1174      C1175   1.406       .  A
C1175      C1176   1.404       .  A
C1176      H1179   1.083       .  S
C1180      C1699   1.478       .  S
C1180      C1181   1.393       .  A
C1180      C1185   1.404       .  A
C1181      C1182   1.400       .  A
C1181      H1186   1.083       .  S
C1182      C3650   1.487       .  S
C1182      C1183   1.408       .  A
C1183      C1184   1.407       .  A
C1183      H3251   1.081       .  S
C1184      C3257   1.508       .  S
C1184      C1185   1.414       .  A
C1185      H1188   1.079       .  S
H1187      C3247   1.081       .  S
C1189      C1576   1.487       .  S
C1189      C1190   1.399       .  A
C1189      C1194   1.406       .  A
C1190      C1191   1.399   1_455  A
C1190      H1195   1.084       .  S
C1191      C3813   1.480       .  S
C1191      C1192   1.402       .  A
C1192      C1193   1.409       .  A
C1192      H3260   1.079       .  S
C1193      C3248   1.508       .  S
C1193      C1194   1.417   1_655  A
C1194      H1197   1.080       .  S
H1196      C3256   1.079       .  S
C1198      C1739   1.482       .  S
C1198      C1199   1.394       .  A
C1198      C1203   1.404       .  A
C1199      C1200   1.404       .  A
C1199      H1204   1.079       .  S
C1200      C1209   1.512       .  S
C1200      C1201   1.414       .  A
C1201      C1202   1.417       .  A
C1201      H1205   1.078       .  S
C1202      C1566   1.520       .  S
C1202      C1203   1.410       .  A
C1203      H1206   1.079       .  S
C1207      C1659   1.473       .  S
C1207      C1208   1.398       .  A
C1207      C1212   1.392       .  A
C1208      C1209   1.418       .  A
C1208      H1213   1.079       .  S
C1209      C1210   1.417       .  A
C1210      C1211   1.404       .  A
C1210      H1214   1.077       .  S
C1211      C1556   1.480       .  S
C1211      C1212   1.393       .  A
C1212      H1215   1.085       .  S
C1216      C1546   1.618       .  S
C1216      C1579   1.611       .  S
C1216      C1606   1.612       .  S
C1216      C1769   1.608       .  S
C1217      C1536   1.645       .  S
C1217      C1559   1.605       .  S
C1217      C1589   1.571       .  S
C1217      C1776   1.614       .  S
C1218      C1526   1.617       .  S
C1218      C1569   1.610       .  S
C1218      C1599   1.608       .  S
C1218      C1789   1.610       .  S
O1219      C1234   1.267       .  A
O1219     Al3291   1.934   1_455  S
C1220      O3294   1.265       .  A
C1220      O1221   1.268   1_565  A
C1220      C1799   1.500       .  S
O1222      C1224   1.257       .  A
O1222     Al1223   1.910       .  S
Al1223     O1231   1.919       .  S
Al1223     O1233   1.931       .  S
Al1223     O1232   1.785       .  S
C1224      O1237   1.261       .  A
C1224      C1819   1.500       .  S
O1225     Al1227   1.916       .  S
O1226      C1239   1.264       .  A
O1226     Al1236   1.912       .  S
Al1227     O3283   1.934       .  S
Al1227     O3301   1.915       .  S
Al1227     O3296   1.786       .  S
O1228      C1235   1.257       .  A
O1228     Al1236   1.907       .  S
O1229      C1238   1.262   1_655  A
O1229     Al3300   1.920       .  S
O1230      C3284   1.265       .  A
O1230     Al1236   1.923       .  S
O1232     Al3291   1.786   1_455  S
O1232     Al2268   1.791   1_455  S
O1233      C1234   1.270       .  A
C1234      C1539   1.510       .  S
C1235      C1849   1.486       .  S
Al1236     O3293   1.920       .  S
Al1236     O2264   1.791   1_565  S
O1237     Al3291   1.915   1_455  S
C1238      C1549   1.497       .  S
C1239      O1240   1.264   1_565  A
C1239      C1529   1.491       .  S
C1241      C1496   1.619       .  S
C1241      C1506   1.581       .  S
C1241      C1516   1.608       .  S
C1241      C1639   1.625       .  S
C1242      C1466   1.601       .  S
C1242      C1476   1.607       .  S
C1242      C1486   1.614       .  S
C1242      C1619   1.584       .  S
C1243      C1436   1.603       .  S
C1243      C1446   1.614       .  S
C1243      C1459   1.608       .  S
C1243      C1629   1.629       .  S
O1244      C1259   1.264       .  A
O1244     Al1252   1.907       .  S
C1245      O1255   1.259       .  A
C1245      O1246   1.257       .  A
C1245      C1729   1.506       .  S
O1246     Al1248   1.908       .  S
O1247      C1249   1.262       .  A
O1247     Al1248   1.917       .  S
Al1248     O1256   1.912       .  S
Al1248     O1258   1.909       .  S
Al1248     O1257   1.784       .  S
C1249      O1262   1.261       .  A
C1249      C1649   1.515       .  S
O1250      C1260   1.260       .  A
O1250     Al1252   1.901       .  S
O1251      C1264   1.260       .  A
O1251     Al1261   1.904       .  S
Al1252     O1265   1.932       .  S
Al1252     O1262   1.916       .  S
Al1252     O1257   1.786       .  S
O1253      C1260   1.263       .  A
O1253     Al1261   1.911       .  S
O1254      C1263   1.259       .  A
O1254     Al1261   1.898       .  S
O1255     Al1261   1.895       .  S
O1256      C1263   1.265       .  A
O1257     Al1261   1.774       .  S
O1258      C1259   1.263       .  A
C1259      C1489   1.479       .  S
C1260      C1689   1.474       .  S
C1263      C1519   1.479       .  S
C1264      O1265   1.263       .  A
C1264      C1456   1.498       .  S
C1266      C1426   1.487       .  S
C1266      C1271   1.408       .  A
C1267      C1268   1.395       .  A
C1267      H1272   1.083       .  S
C1268      C1439   1.477       .  S
C1269      C1270   1.405       .  A
C1269      H1273   1.081       .  S
C1270      C1277   1.493       .  S
C1270      C1271   1.409       .  A
C1271      H1274   1.082       .  S
C1275      C1509   1.480       .  S
C1275      C1276   1.398       .  A
C1275      C1280   1.400       .  A
C1276      C1277   1.405       .  A
C1276      H1281   1.081       .  S
C1277      C1278   1.405       .  A
C1278      C1279   1.407       .  A
C1278      H1282   1.082       .  S
C1279      C1416   1.487       .  S
C1279      C1280   1.403       .  A
C1280      H1283   1.083       .  S
C1284      C1469   1.480       .  S
C1284      C1285   1.399       .  A
C1285      H1290   1.084       .  S
C1286      C1406   1.491       .  S
C1286      C1287   1.405       .  A
C1287      C1288   1.419       .  A
C1287      H1291   1.080       .  S
C1288      C1297   1.510       .  S
C1288      C1289   1.414       .  A
C1289      H1292   1.080       .  S
C1293      C3563   1.483   1_455  S
C1293      C3358   1.406       .  A
C1293      C1298   1.406       .  A
C1294      C3357   1.406       .  A
C1294      C3359   1.402       .  A
C1294      H1299   1.083       .  S
C1295      C1396   1.497       .  S
C1295      C3358   1.402       .  A
C1295      C1296   1.407       .  A
C1296      C1297   1.410       .  A
C1296      H1300   1.080       .  S
C1297      C1298   1.414       .  A
C1298      H1301   1.080       .  S
C1302      C1479   1.489       .  S
C1302      C1303   1.398       .  A
C1302      C1307   1.397       .  A
C1303      C1304   1.405       .  A
C1303      H1308   1.081       .  S
C1304      C1315   1.499       .  S
C1304      C1305   1.410       .  A
C1305      C1306   1.414       .  A
C1305      H1309   1.074       .  S
C1306      C1386   1.518       .  S
C1306      C1307   1.415       .  A
C1307      H1310   1.077       .  S
C1311      C1376   1.483       .  S
C1311      C3376   1.398       .  A
C1311      C1316   1.401       .  A
C1312      C3375   1.398       .  A
C1312      C1313   1.409       .  A
C1312      H1317   1.082       .  S
C1313      C1449   1.502       .  S
C1313      C3378   1.410       .  A
C1314      C3377   1.410       .  A
C1314      C1315   1.409       .  A
C1314      H1318   1.082       .  S
C1315      C1316   1.406       .  A
C1316      H1319   1.080       .  S
C1320      C1366   1.578       .  S
C1320      C1389   1.600       .  S
C1320      C1419   1.621       .  S
C1320      C1939   1.617       .  S
C1321      C1409   1.609       .  S
C1321      C1429   1.599       .  S
C1321      C1919   1.604       .  S
C1322      C3413   1.604   1_455  S
C1322      C1379   1.611       .  S
C1322      C1399   1.623       .  S
C1322      C1929   1.581       .  S
O1323      C1338   1.265       .  A
O1323     Al1331   1.907       .  S
C1324      O1334   1.257   1_554  A
C1324      O1325   1.269   1_554  A
C1324      C1986   1.500       .  S
O1325     Al1327   1.937       .  S
O1326      C1328   1.262       .  A
O1326     Al1327   1.916       .  S
Al1327     O1335   1.921       .  S
Al1327     O1337   1.935       .  S
Al1327     O1336   1.780       .  S
C1328      O1341   1.254       .  A
C1328      C1949   1.494   1_556  S
O1329      C1339   1.262       .  A
O1329     Al1331   1.900       .  S
O1330      C1343   1.259       .  A
O1330     Al1340   1.904       .  S
Al1331     O1344   1.901       .  S
Al1331     O1341   1.899       .  S
Al1331     O1336   1.785       .  S
O1332      C1339   1.264       .  A
O1332     Al1340   1.917       .  S
O1333      C1342   1.262       .  A
O1333     Al1340   1.920       .  S
O1334     Al1340   1.898       .  S
O1335      C1342   1.263       .  A
O1336     Al1340   1.791       .  S
O1337      C1338   1.268       .  A
C1338      C1359   1.490       .  S
C1339      C2029   1.486   1_556  S
C1342      C1346   1.488       .  S
C1343      O1344   1.260       .  A
C1343      C1369   1.480       .  S
C1345      C1346   1.410       .  A
C1345      C1350   1.430       .  A
C1345     Br1352   1.926       .  S
C1346      C1347   1.393       .  A
C1347      C1348   1.398       .  A
C1347     Br1354   1.934       .  S
C1348      C1349   1.446       .  A
C1348     Br1353   1.937       .  S
C1349      C3386   1.604       .  S
C1349      C1350   1.440       .  A
C1350     Br1351   1.940       .  S
C1355      C1356   1.450       .  A
C1355      C1360   1.414       .  A
C1355     Br1362   1.934       .  S
C1356      C1357   1.462       .  A
C1357      C1358   1.421       .  A
C1357     Br1364   1.950       .  S
C1358      C1359   1.398       .  A
C1358     Br1363   1.939       .  S
C1359      C1360   1.400       .  A
C1360     Br1361   1.940       .  S
C1365      C1366   1.445       .  A
C1365      C1370   1.412       .  A
C1365     Br1372   1.940       .  S
C1366      C1367   1.443       .  A
C1367      C1368   1.407       .  A
C1367     Br1374   1.942       .  S
C1368      C1369   1.402       .  A
C1368     Br1373   1.940       .  S
C1369      C1370   1.404       .  A
C1370     Br1371   1.939       .  S
C1375      C1376   1.390       .  A
C1375      C1380   1.403       .  A
C1375     Br1382   1.938       .  S
C1376      C3441   1.403       .  A
C1377      C3440   1.403       .  A
C1377      C1378   1.420       .  A
C1377     Br1384   1.939       .  S
C1378      C3443   1.453       .  A
C1378     Br1383   1.944       .  S
C1379      C3442   1.453       .  A
C1379      C1380   1.450       .  A
C1380     Br1381   1.940       .  S
C1385      C1386   1.419       .  A
C1385      C1390   1.410       .  A
C1385     Br1392   1.936       .  S
C1386      C1387   1.410       .  A
C1387      C1388   1.412       .  A
C1387     Br1394   1.942       .  S
C1388      C1389   1.439       .  A
C1388     Br1393   1.910       .  S
C1389      C1390   1.440       .  A
C1390     Br1391   1.939       .  S
C1395      C3460   1.413       .  A
C1395      C1400   1.429       .  A
C1395     Br1402   1.935       .  S
C1396      C3459   1.413   1_455  A
C1396      C1397   1.401       .  A
C1397      C1398   1.395       .  A
C1397     Br1404   1.938       .  S
C1398      C1399   1.425       .  A
C1398     Br1403   1.933       .  S
C1399      C3464   1.446   1_455  A
C1400      C3463   1.446       .  A
C1400     Br1401   1.940       .  S
C1405      C1406   1.401       .  A
C1405      C1410   1.414   1_565  A
C1405     Br1412   1.937   1_565  S
C1406      C1407   1.396       .  A
C1407      C1408   1.410       .  A
C1407     Br1414   1.940       .  S
C1408      C1409   1.458       .  A
C1408     Br1413   1.940       .  S
C1409      C1410   1.454   1_565  A
C1410     Br1411   1.945       .  S
C1415      C1416   1.409       .  A
C1415      C1420   1.429       .  A
C1415     Br1422   1.943       .  S
C1416      C1417   1.399       .  A
C1417      C1418   1.389       .  A
C1417     Br1424   1.931       .  S
C1418      C1419   1.412       .  A
C1418     Br1423   1.932       .  S
C1419      C1420   1.468       .  A
C1420     Br1421   1.948       .  S
C1425      C1430   1.402       .  A
C1425     Br1432   1.939       .  S
C1426      C1427   1.403       .  A
C1427      C1428   1.411       .  A
C1427     Br1434   1.942       .  S
C1428      C1429   1.457       .  A
C1428     Br1433   1.940       .  S
C1430     Br1431   1.933       .  S
C1435      C1436   1.460       .  A
C1435      C1440   1.405       .  A
C1435     Br1442   1.955       .  S
C1436      C1437   1.443       .  A
C1437      C1438   1.413       .  A
C1437     Br1444   1.925       .  S
C1438      C1439   1.403       .  A
C1438     Br1443   1.943       .  S
C1439      C1440   1.393       .  A
C1440     Br1441   1.945       .  S
C1445      C1446   1.454       .  A
C1445      C1450   1.424       .  A
C1445     Br3516   1.933       .  S
C1446      C1447   1.452       .  A
C1447      C1448   1.402       .  A
C1447     Br1454   1.926       .  S
C1448      C1449   1.403       .  A
C1448     Br1453   1.944       .  S
C1449      C1450   1.411       .  A
C1450     Br3515   1.940       .  S
Br1451     C3514   1.940       .  S
Br1452     C3509   1.933   1_455  S
C1455      C1456   1.405       .  A
C1455      C1460   1.414       .  A
C1455     Br1462   1.948       .  S
C1456      C1457   1.406       .  A
C1457      C1458   1.425       .  A
C1457     Br1464   1.942       .  S
C1458      C1459   1.459       .  A
C1458     Br1463   1.944       .  S
C1459      C1460   1.451       .  A
C1460     Br1461   1.933       .  S
C1465      C1466   1.446       .  A
C1465      C1470   1.417       .  A
C1465     Br1472   1.914       .  S
C1466      C1467   1.450       .  A
C1467      C1468   1.405       .  A
C1467     Br1474   1.942       .  S
C1468      C1469   1.395       .  A
C1468     Br1473   1.935       .  S
C1469      C1470   1.399       .  A
C1475      C1476   1.446       .  A
C1475      C1480   1.385       .  A
C1475     Br1482   1.937       .  S
C1476      C1477   1.452       .  A
C1477      C1478   1.431       .  A
C1477     Br1484   1.929       .  S
C1478      C1479   1.409       .  A
C1478     Br1483   1.934       .  S
C1479      C1480   1.397       .  A
C1480     Br1481   1.939       .  S
C1485      C1486   1.446       .  A
C1485      C1490   1.393       .  A
C1485     Br1492   1.951       .  S
C1486      C1487   1.451       .  A
C1487      C1488   1.425       .  A
C1487     Br1494   1.923       .  S
C1488      C1489   1.402       .  A
C1488     Br1493   1.934       .  S
C1489      C1490   1.397       .  A
C1490     Br1491   1.935       .  S
C1495      C1496   1.456       .  A
C1495      C1500   1.398       .  A
C1495     Br1502   1.950       .  S
C1496      C1497   1.453       .  A
C1497      C1498   1.426       .  A
C1497     Br1504   1.933       .  S
C1498      C1499   1.400       .  A
C1498     Br3567   1.933       .  S
C1499      C3357   1.483       .  S
C1499      C1500   1.391       .  A
C1500     Br1501   1.942       .  S
Br1503     C3562   1.933   1_455  S
C1505      C1506   1.450       .  A
C1505      C1510   1.413       .  A
C1505     Br1512   1.949       .  S
C1506      C1507   1.445       .  A
C1507      C1508   1.406       .  A
C1507     Br1514   1.942       .  S
C1508      C1509   1.406       .  A
C1508     Br1513   1.946       .  S
C1509      C1510   1.399       .  A
C1510     Br1511   1.937       .  S
C1515      C1516   1.451       .  A
C1515      C1520   1.405       .  A
C1515     Br1522   1.924       .  S
C1516      C1517   1.455       .  A
C1517      C1518   1.419       .  A
C1517     Br1524   1.911       .  S
C1518      C1519   1.391       .  A
C1518     Br1523   1.937       .  S
C1519      C1520   1.394       .  A
C1520     Br1521   1.938       .  S
C1525      C1526   1.452       .  A
C1525      C1530   1.418       .  A
C1525     Br1532   1.929       .  S
C1526      C1527   1.461       .  A
C1527      C1528   1.416       .  A
C1527     Br1534   1.953       .  S
C1528      C1529   1.398       .  A
C1528     Br1533   1.942       .  S
C1529      C1530   1.401       .  A
C1530     Br1531   1.945   1_565  S
C1535      C1536   1.434       .  A
C1535      C1540   1.411       .  A
C1535     Br1542   1.936       .  S
C1536      C1537   1.466       .  A
C1537      C1538   1.428       .  A
C1537     Br1544   1.958       .  S
C1538      C1539   1.412       .  A
C1538     Br3607   1.948   1_455  S
C1539      C1540   1.406       .  A
C1540     Br1541   1.930       .  S
Br1543     C3602   1.948       .  S
C1545      C1546   1.460       .  A
C1545      C1550   1.423       .  A
C1545     Br1552   1.947       .  S
C1546      C1547   1.453       .  A
C1547      C1548   1.418       .  A
C1547     Br1554   1.929       .  S
C1548      C1549   1.400       .  A
C1548     Br1553   1.941       .  S
C1549      C1550   1.400       .  A
C1555      C1556   1.397       .  A
C1555      C1560   1.400       .  A
C1555     Br1562   1.947       .  S
C1556      C1557   1.403       .  A
C1557      C1558   1.417       .  A
C1557     Br1564   1.934       .  S
C1558      C1559   1.446       .  A
C1558     Br1563   1.949       .  S
C1559      C1560   1.460       .  A
C1560     Br1561   1.965       .  S
C1565      C1566   1.415       .  A
C1565      C1570   1.415       .  A
C1565     Br1572   1.933       .  S
C1566      C1567   1.408       .  A
C1567      C1568   1.414       .  A
C1567     Br1574   1.948       .  S
C1568      C1569   1.450       .  A
C1568     Br1573   1.931       .  S
C1569      C1570   1.448       .  A
C1570     Br1571   1.937       .  S
C1575      C1576   1.399       .  A
C1575      C1580   1.419       .  A
C1575     Br3646   1.942   1_455  S
C1576      C1577   1.395       .  A
C1577      C1578   1.408       .  A
C1577     Br1584   1.942       .  S
C1578      C1579   1.458       .  A
C1578     Br1583   1.944       .  S
C1579      C1580   1.458       .  A
C1580     Br1581   1.943       .  S
Br1582     C3639   1.942       .  S
C1585      C1586   1.405       .  A
C1585      C1590   1.405       .  A
C1585     Br1592   1.941   1_455  S
C1586      C3246   1.487       .  S
C1586      C1587   1.407       .  A
C1587      C1588   1.406       .  A
C1587     Br1594   1.938       .  S
C1588      C1589   1.449       .  A
C1588     Br1593   1.938       .  S
C1589      C1590   1.445       .  A
C1590     Br1591   1.936       .  S
C1595      C1596   1.392       .  A
C1595      C1600   1.398       .  A
C1595     Br1602   1.945       .  S
C1597     Br1604   1.939       .  S
C1598      C1599   1.461       .  A
C1598     Br1603   1.940       .  S
C1599      C1600   1.455       .  A
C1600     Br1601   1.939       .  S
C1605      C1606   1.460       .  A
C1605      C1610   1.417       .  A
C1605     Br1612   1.932       .  S
C1606      C1607   1.447       .  A
C1607      C1608   1.406       .  A
C1607     Br1614   1.934       .  S
C1608      C1609   1.404       .  A
C1608     Br1613   1.933       .  S
C1609      C1610   1.403       .  A
C1610     Br1611   1.941       .  S
C1615      C1616   1.401       .  A
C1615      C1620   1.411       .  A
C1616      C1617   1.396       .  A
C1617      C1618   1.407       .  A
C1617     Br1624   1.943       .  S
C1618      C1619   1.452       .  A
C1618     Br1623   1.937       .  S
C1619      C1620   1.444       .  A
C1620     Br1621   1.948       .  S
C1625      C1626   1.388       .  A
C1625      C1630   1.412       .  A
C1625     Br1632   1.939       .  S
C1626      C1627   1.390       .  A
C1627      C1628   1.420       .  A
C1627     Br1634   1.944       .  S
C1628      C1629   1.471       .  A
C1628     Br1633   1.953       .  S
C1629      C1630   1.454       .  A
C1630     Br1631   1.923       .  S
C1635      C1636   1.415       .  A
C1635      C1640   1.427       .  A
C1635     Br1642   1.949       .  S
C1636      C1637   1.411       .  A
C1637      C1638   1.410       .  A
C1637     Br3708   1.932       .  S
C1638      C1639   1.437       .  A
C1638     Br1643   1.935       .  S
C1639      C1640   1.464       .  A
C1640     Br1641   1.943       .  S
Br1644     C3701   1.932   1_455  S
C1645      C1646   1.430       .  A
C1645      C1650   1.401       .  A
C1645     Br1652   1.945       .  S
C1646      C1647   1.454       .  A
C1647      C1648   1.426       .  A
C1647     Br1654   1.946       .  S
C1648      C1649   1.416       .  A
C1648     Br1653   1.943       .  S
C1649      C1650   1.411       .  A
C1650     Br1651   1.940       .  S
C1655      C1656   1.444       .  A
C1655      C1660   1.388       .  A
C1655     Br1662   1.943       .  S
C1656      C1657   1.437       .  A
C1657      C1658   1.423       .  A
C1657     Br1664   1.941       .  S
C1658      C1659   1.411       .  A
C1658     Br1663   1.928       .  S
C1659      C1660   1.390       .  A
C1660     Br1661   1.939       .  S
C1665      C1666   1.392       .  A
C1665      C1670   1.401       .  A
C1665     Br1672   1.943       .  S
C1666      C1667   1.397       .  A
C1667      C1668   1.408       .  A
C1668      C1669   1.449       .  A
C1668     Br1673   1.943       .  S
C1669      C1670   1.451       .  A
C1670     Br1671   1.926       .  S
C1675      C1676   1.397       .  A
C1675      C1680   1.421       .  A
C1675     Br1682   1.940       .  S
C1676      C1677   1.398       .  A
C1677      C1678   1.413       .  A
C1678      C1679   1.446       .  A
C1678     Br1683   1.929       .  S
C1679      C1680   1.459       .  A
C1680     Br1681   1.940       .  S
C1685      C1686   1.445       .  A
C1685      C1690   1.415       .  A
C1685     Br1692   1.917       .  S
C1686      C1687   1.442       .  A
C1687      C1688   1.401       .  A
C1687     Br1694   1.940       .  S
C1688      C1689   1.393       .  A
C1688     Br1693   1.927       .  S
C1689      C1690   1.398       .  A
C1690     Br1691   1.936       .  S
C1695      C1696   1.446       .  A
C1695      C1700   1.404       .  A
C1695     Br1702   1.933       .  S
C1696      C1697   1.457       .  A
C1697      C1698   1.416       .  A
C1697     Br1704   1.942       .  S
C1698      C1699   1.400       .  A
C1698     Br3767   1.944       .  S
C1699      C1700   1.389       .  A
C1700     Br1701   1.935       .  S
Br1703     C3762   1.944   1_455  S
C1705      C1706   1.426       .  A
C1705      C1710   1.396       .  A
C1705     Br1712   1.936       .  S
C1706      C1707   1.452       .  A
C1707      C1708   1.430       .  A
C1707     Br1714   1.940       .  S
C1708      C1709   1.410       .  A
C1709      C1710   1.400       .  A
C1710     Br1711   1.933       .  S
C1715      C1716   1.446       .  A
C1715      C1720   1.424       .  A
C1715     Br1722   1.943       .  S
C1716      C1717   1.457       .  A
C1717      C1718   1.415       .  A
C1717     Br1724   1.950       .  S
C1718      C1719   1.399       .  A
C1718     Br1723   1.941       .  S
C1719      C1720   1.401       .  A
C1720     Br1721   1.924       .  S
C1725      C1726   1.450       .  A
C1725      C1730   1.419       .  A
C1725     Br1732   1.942       .  S
C1726      C1727   1.462       .  A
C1727      C1728   1.413       .  A
C1727     Br1734   1.955       .  S
C1728      C1729   1.401       .  A
C1728     Br1733   1.952       .  S
C1729      C1730   1.412       .  A
C1730     Br1731   1.947       .  S
C1735      C1736   1.448       .  A
C1735      C1740   1.392       .  A
C1735     Br1742   1.931       .  S
C1736      C1737   1.459       .  A
C1737      C1738   1.415       .  A
C1737     Br1744   1.941       .  S
C1738      C1739   1.401       .  A
C1738     Br1743   1.936       .  S
C1739      C1740   1.393       .  A
C1740     Br1741   1.930       .  S
C1745      C1746   1.459       .  A
C1745      C1750   1.415       .  A
C1745     Br1752   1.948       .  S
C1746      C1747   1.451       .  A
C1747      C1748   1.404       .  A
C1747     Br1754   1.937       .  S
C1748      C1749   1.397       .  A
C1748     Br1753   1.942       .  S
C1749      C3255   1.480       .  S
C1749      C1750   1.398       .  A
C1750     Br3815   1.940       .  S
Br1751     C3814   1.940   1_455  S
C1755      C1756   1.445       .  A
C1755      C1760   1.405       .  A
C1755     Br1762   1.934       .  S
C1756      C1757   1.457       .  A
C1757      C1758   1.417       .  A
C1757     Br1764   1.948       .  S
C1758      C1759   1.406       .  A
C1758     Br1763   1.935       .  S
C1759      C1760   1.408       .  A
C1760     Br3825   1.940       .  S
Br1761     C3824   1.940       .  S
C1765      C1766   1.402       .  A
C1765      C1770   1.420       .  A
C1765     Br1772   1.941       .  S
C1766      C1767   1.394       .  A
C1767      C1768   1.405       .  A
C1767     Br1774   1.938       .  S
C1768      C1769   1.456       .  A
C1768     Br1773   1.956       .  S
C1769      C1770   1.452       .  A
C1770     Br1771   1.937       .  S
C1775      C1776   1.462       .  A
C1775      C1780   1.404       .  A
C1775     Br1782   1.936       .  S
C1776      C1777   1.448       .  A
C1777      C1778   1.420       .  A
C1777     Br1784   1.914       .  S
C1778      C1779   1.396       .  A
C1778     Br1783   1.940       .  S
C1779      C1780   1.386       .  A
C1780     Br1781   1.942       .  S
C1785      C1786   1.394       .  A
C1785      C1790   1.413       .  A
C1785     Br1792   1.936       .  S
C1786      C1787   1.395       .  A
C1787      C1788   1.411       .  A
C1787     Br1794   1.934       .  S
C1788      C1789   1.457       .  A
C1788     Br1793   1.957       .  S
C1789      C1790   1.453       .  A
C1790     Br1791   1.927       .  S
C1795      C1796   1.456       .  A
C1795      C1800   1.425       .  A
C1795     Br1802   1.937   1_455  S
C1796      C1797   1.454       .  A
C1797      C1798   1.415       .  A
C1797     Br1804   1.928       .  S
C1798      C1799   1.399       .  A
C1799      C1800   1.409       .  A
C1800     Br3865   1.937   1_455  S
Br1801     C3864   1.937       .  S
C1805      C1806   1.394       .  A
C1805      C1810   1.410       .  A
C1805     Br1812   1.939       .  S
C1806      C1807   1.391       .  A
C1807      C1808   1.419       .  A
C1807     Br1814   1.938       .  S
C1808      C1809   1.451       .  A
C1808     Br1813   1.920       .  S
C1809      C1810   1.464       .  A
C1810     Br1811   1.960       .  S
C1815      C1816   1.396       .  A
C1815      C1820   1.396       .  A
C1815     Br1822   1.928       .  S
C1816      C1817   1.435       .  A
C1817      C1818   1.430       .  A
C1817     Br1824   1.925       .  S
C1818      C1819   1.430       .  A
C1818     Br1823   1.941       .  S
C1819      C1820   1.416       .  A
C1820     Br3885   1.925   1_455  S
Br1821     C3884   1.925       .  S
C1825      C1826   1.402   1_655  A
C1825      C1830   1.427   1_655  A
C1825     Br3896   1.938       .  S
C1826      C3183   1.470   1_455  S
C1826      C1827   1.390       .  A
C1827      C1828   1.389       .  A
C1827     Br1834   1.935       .  S
C1828      C1829   1.430       .  A
C1828     Br1833   1.911       .  S
C1829      C1830   1.451       .  A
C1830     Br1831   1.927       .  S
Br1832     C3889   1.938       .  S
C1835      C1836   1.425       .  A
C1835      C1840   1.404       .  A
C1835     Br1842   1.937       .  S
C1836      C1837   1.438       .  A
C1837      C1838   1.419       .  A
C1837     Br1844   1.942       .  S
C1838      C1839   1.415       .  A
C1838     Br1843   1.941       .  S
C1839      C1840   1.410       .  A
C1840     Br1841   1.935       .  S
C1845      C1846   1.457       .  A
C1845      C1850   1.424       .  A
C1845     Br1852   1.941       .  S
C1846      C1847   1.452       .  A
C1847      C1848   1.409       .  A
C1847     Br1854   1.949       .  S
C1848      C1849   1.395       .  A
C1848     Br1853   1.933       .  S
C1849      C1850   1.399       .  A
C1850     Br1851   1.938   1_565  S
C1855      C1856   1.392       .  A
C1855      C1860   1.403       .  A
C1855     Br1862   1.940       .  S
C1857     Br1864   1.942       .  S
C1858      C1859   1.443       .  A
C1859      C1860   1.444       .  A
C1860     Br1861   1.922       .  S
C1865      C1866   1.412       .  A
C1865      C1870   1.419       .  A
C1865     Br1872   1.943       .  S
C1866      C1867   1.417       .  A
C1867      C1868   1.407       .  A
C1867     Br1874   1.942       .  S
C1868      C1869   1.440       .  A
C1868     Br1873   1.946       .  S
C1869      C1870   1.450       .  A
C1870     Br1871   1.942       .  S
C1875      C1876   1.409       .  A
C1875      C1880   1.391       .  A
C1875     Br1882   1.927       .  S
C1876      C1877   1.411       .  A
C1877      C1878   1.423       .  A
C1877     Br1884   1.935       .  S
C1878      C1879   1.460       .  A
C1878     Br1883   1.948       .  S
C1879      C1880   1.415       .  A
C1880     Br1881   1.923       .  S
C1885      C1886   1.400       .  A
C1885      C1890   1.419       .  A
C1885     Br3956   1.937   1_455  S
C1886      C1887   1.384       .  A
C1887      C1888   1.391       .  A
C1887     Br1894   1.940       .  S
C1888      C1889   1.455       .  A
C1888     Br1893   1.948       .  S
C1889      C1890   1.450       .  A
C1890     Br1891   1.927       .  S
Br1892     C3949   1.937       .  S
C1895      C1896   1.456       .  A
C1895      C1900   1.424       .  A
C1895     Br1902   1.937       .  S
C1896      C1897   1.460       .  A
C1897      C1898   1.405       .  A
C1897     Br1904   1.938       .  S
C1898      C1899   1.397   1_565  A
C1898     Br1903   1.958   1_565  S
C1899      C1900   1.401   1_545  A
C1905      C1906   1.447       .  A
C1905      C1910   1.403       .  A
C1905     Br1912   1.945       .  S
C1906      C1907   1.444       .  A
C1907      C1908   1.406       .  A
C1907     Br1914   1.918       .  S
C1908      C1909   1.402       .  A
C1908     Br1913   1.937       .  S
C1909      C1910   1.404       .  A
C1910     Br1911   1.936       .  S
C1915      C1916   1.397       .  A
C1915      C1920   1.405       .  A
C1915     Br1922   1.932       .  S
C1916      C1917   1.396       .  A
C1917      C1918   1.416       .  A
C1917     Br1924   1.939       .  S
C1918      C1919   1.455       .  A
C1918     Br1923   1.934   1_565  S
C1919      C1920   1.455       .  A
C1920     Br1921   1.956       .  S
C1925      C1926   1.405       .  A
C1925      C1930   1.404       .  A
C1925     Br1932   1.937       .  S
C1926      C1927   1.399       .  A
C1927      C1928   1.407       .  A
C1927     Br1934   1.944       .  S
C1928      C1929   1.442       .  A
C1928     Br1933   1.926       .  S
C1929      C1930   1.443       .  A
C1930     Br1931   1.952       .  S
C1935      C1936   1.393       .  A
C1935      C1940   1.415       .  A
C1935     Br1942   1.934       .  S
C1936      C1937   1.389       .  A
C1937      C1938   1.401       .  A
C1937     Br1944   1.928       .  S
C1938      C1939   1.449       .  A
C1938     Br1943   1.941       .  S
C1939      C1940   1.457       .  A
C1940     Br1941   1.942       .  S
C1945      C1946   1.454       .  A
C1945      C1950   1.418       .  A
C1945     Br1952   1.936       .  S
C1946      C1947   1.465       .  A
C1947      C1948   1.419       .  A
C1947     Br1954   1.959       .  S
C1948      C1949   1.403       .  A
C1948     Br1953   1.951       .  S
C1949      C1950   1.397       .  A
C1950     Br1951   1.944   1_554  S
C1955      C1956   1.456       .  A
C1955      C1960   1.403       .  A
C1956      C1957   1.451       .  A
C1957      C1958   1.408       .  A
C1957     Br1964   1.938       .  S
C1958      C1959   1.405       .  A
C1958     Br1963   1.939       .  S
C1959      C1960   1.396       .  A
C1965      C1966   1.452       .  A
C1965      C1970   1.400       .  A
C1965     Br1972   1.937       .  S
C1966      C1967   1.461       .  A
C1967      C1968   1.417       .  A
C1967     Br1974   1.948       .  S
C1968      C1969   1.396       .  A
C1968     Br1973   1.939       .  S
C1969      C1970   1.393       .  A
C1970     Br1971   1.945       .  S
C1975      C1976   1.400       .  A
C1975      C1980   1.419       .  A
C1975     Br1982   1.938       .  S
C1976      C1977   1.399       .  A
C1977      C1978   1.411       .  A
C1977     Br1984   1.945       .  S
C1978      C1979   1.451       .  A
C1978     Br1983   1.935   1_565  S
C1979      C1980   1.463       .  A
C1980     Br1981   1.955       .  S
C1985      C1986   1.404       .  A
C1985      C1990   1.425       .  A
C1985     Br1992   1.943       .  S
C1986      C1987   1.391       .  A
C1987      C1988   1.410       .  A
C1987     Br1994   1.935       .  S
C1988      C1989   1.470       .  A
C1988     Br1993   1.962       .  S
C1989      C1990   1.449       .  A
C1990     Br1991   1.920       .  S
C1995      C4060   1.431       .  A
C1995      C2000   1.419       .  A
C1995     Br2002   1.934   1_655  S
C1996      C4059   1.431       .  A
C1996      C1997   1.460       .  A
C1997      C1998   1.404       .  A
C1997     Br2004   1.955       .  S
C1998      C1999   1.395       .  A
C1998     Br2003   1.942       .  S
C1999      C4064   1.406       .  A
C2000      C4063   1.406       .  A
C2000     Br2001   1.928       .  S
C2005      C4070   1.449   1_455  A
C2005      C2010   1.415   1_455  A
C2005     Br2012   1.936       .  S
C2006      C4069   1.449       .  A
C2006      C2007   1.459       .  A
C2007      C2008   1.405       .  A
C2007     Br2014   1.962       .  S
C2008      C2009   1.401       .  A
C2008     Br2013   1.943       .  S
C2009      C4074   1.399       .  A
C2010      C4073   1.399       .  A
C2010     Br2011   1.940   1_655  S
C2015      C2016   1.450       .  A
C2015      C2020   1.419       .  A
C2015     Br2022   1.915       .  S
C2016      C3098   1.607   1_455  S
C2016      C2017   1.452       .  A
C2017      C2018   1.409       .  A
C2017     Br2024   1.931   1_455  S
C2018      C2019   1.393       .  A
C2018     Br2023   1.935   1_554  S
C2019      C2020   1.392       .  A
C2020     Br2021   1.940       .  S
C2025      C2026   1.449       .  A
C2025      C2030   1.410       .  A
C2025     Br2032   1.928       .  S
C2026      C2027   1.451       .  A
C2027      C2028   1.403       .  A
C2027     Br2034   1.948       .  S
C2028      C2029   1.397       .  A
C2028     Br2033   1.928       .  S
C2029      C2030   1.400       .  A
C2030     Br2031   1.929   1_554  S
C2035      C2036   1.450       .  A
C2035      C2040   1.408       .  A
C2035     Br2042   1.931       .  S
C2036      C2037   1.444       .  A
C2037      C2038   1.407       .  A
C2037     Br2044   1.938       .  S
C2038      C2039   1.411       .  A
C2038     Br2043   1.942       .  S
C2039      C2040   1.403       .  A
C2040     Br2041   1.940       .  S
C2045      C2046   1.454       .  A
C2045      C2050   1.407       .  A
C2045     Br2052   1.943       .  S
C2046      C2047   1.455       .  A
C2047      C2048   1.403       .  A
C2047     Br2054   1.931       .  S
C2048      C2049   1.388       .  A
C2048     Br2053   1.940       .  S
C2049      C2050   1.396       .  A
C2050     Br2051   1.935       .  S
C2055      C2056   1.447       .  A
C2055      C2060   1.417       .  A
C2055     Br2062   1.938       .  S
C2056      C2057   1.448       .  A
C2057      C2058   1.392       .  A
C2057     Br2064   1.946       .  S
C2058      C2059   1.386       .  A
C2058     Br2063   1.917       .  S
C2059      C2060   1.419       .  A
C2060     Br2061   1.950       .  S
C2065      C3058   1.602       .  S
C2065      C3068   1.594       .  S
C2065      C3078   1.597       .  S
C2065      C3088   1.595       .  S
C2066      C3021   1.635       .  S
C2066      C3028   1.636       .  S
C2066      C3038   1.579       .  S
C2067      C2978   1.618       .  S
C2067      C2988   1.604       .  S
C2067      C2998   1.600       .  S
C2067      C4043   1.607   1_545  S
O2068      C2083   1.272       .  A
O2068     Al2076   1.938   1_554  S
C2069      O2079   1.256       .  A
C2069      O2070   1.249       .  A
C2069      C2958   1.471       .  S
O2070     Al2072   1.864       .  S
O2071      C2073   1.260       .  A
O2071     Al2072   1.904       .  S
Al2072     O2080   1.905   1_556  S
Al2072     O2082   1.857   1_556  S
Al2072     O2081   1.785       .  S
C2073      O2086   1.255       .  A
C2073      C2968   1.476       .  S
O2074      C2084   1.263       .  A
O2074     Al2076   1.910       .  S
O2075      C2088   1.260       .  A
O2075     Al2085   1.903   1_554  S
Al2076     O2089   1.903   1_556  S
Al2076     O2086   1.901       .  S
Al2076     O2081   1.801       .  S
O2077      C2084   1.259       .  A
O2077     Al2085   1.899       .  S
O2078      C2087   1.259       .  A
O2078     Al2085   1.908   1_554  S
O2079     Al2085   1.891       .  S
O2080      C2087   1.262       .  A
O2081     Al2085   1.791       .  S
O2082      C2083   1.249       .  A
C2083      C3091   1.492       .  S
C2084      C2948   1.477       .  S
C2087      C3051   1.478       .  S
C2088      O2089   1.259       .  A
C2088      C3008   1.489       .  S
C2090      C2941   1.490       .  S
C2090      C2091   1.404       .  A
C2090      C2095   1.404       .  A
C2091      C2092   1.406       .  A
C2091      H2096   1.082       .  S
C2092      C2101   1.488       .  S
C2092      C2093   1.402       .  A
C2093      C2094   1.396       .  A
C2093      H2097   1.081       .  S
C2094      C3081   1.472       .  S
C2094      C2095   1.398       .  A
C2095      H2098   1.083       .  S
C2099      C2931   1.484       .  S
C2099      C3132   1.400       .  A
C2099      C2104   1.403       .  A
C2100      C3131   1.400       .  A
C2100      C2101   1.406       .  A
C2100      H2105   1.082       .  S
C2101      C2102   1.404       .  A
C2102      C2103   1.399       .  A
C2102      H2106   1.082       .  S
C2103      C3001   1.475       .  S
C2103      C3136   1.401       .  A
C2104      C3135   1.401       .  A
C2104      H2107   1.083       .  S
C2108      C2918   1.465       .  S
C2108      C2113   1.395       .  A
C2109      C2110   1.403       .  A
C2109      H2114   1.081       .  S
C2110      C2121   1.495       .  S
C2110      C2111   1.421       .  A
C2111      C2112   1.404       .  A
C2111      H2115   1.073       .  S
C2112      C3031   1.492       .  S
C2113      H2116   1.084       .  S
C2117      C3071   1.503       .  S
C2117      C2118   1.411       .  A
C2117      C2122   1.404       .  A
C2118      C2119   1.404       .  A
C2118      H2123   1.074       .  S
C2119      C2908   1.499       .  S
C2119      C2120   1.400       .  A
C2120      C2121   1.412       .  A
C2120      H2124   1.080       .  S
C2121      C2122   1.401       .  A
C2122      H2125   1.081       .  S
C2126      C2878   1.625       .  S
C2126      C2891   1.588       .  S
C2126      C2901   1.583       .  S
C2126      C2911   1.609       .  S
C2127      C2848   1.593       .  S
C2127      C2861   1.622       .  S
C2127      C2868   1.607       .  S
C2127      C2938   1.604       .  S
C2128      C2828   1.613       .  S
C2128      C2841   1.617       .  S
C2128      C2921   1.613       .  S
C2128      C2928   1.612       .  S
O2129      C2144   1.264       .  A
O2129     Al2137   1.923       .  S
C2130      O2140   1.263       .  A
C2130      O2131   1.265       .  A
C2130      C2818   1.478       .  S
O2131     Al2133   1.905       .  S
O2132      C2134   1.255       .  A
O2132     Al2133   1.906       .  S
Al2133     O2141   1.884       .  S
Al2133     O2143   1.904       .  S
Al2133     O2142   1.785       .  S
C2134      O2147   1.255       .  A
C2134      C2811   1.473       .  S
O2135      C2145   1.262       .  A
O2135     Al2137   1.901       .  S
O2136      C2149   1.258       .  A
O2136     Al2146   1.904       .  S
Al2137     O2150   1.902       .  S
Al2137     O2147   1.884       .  S
Al2137     O2142   1.786       .  S
O2138      C2145   1.259       .  A
O2138     Al2146   1.899       .  S
O2139      C2148   1.262       .  A
O2139     Al2146   1.921       .  S
O2140     Al2146   1.913       .  S
O2141      C2148   1.252       .  A
O2142     Al2146   1.796       .  S
O2143      C2144   1.265       .  A
C2144      C2871   1.498       .  S
C2145      C2798   1.482       .  S
C2148      C2898   1.506       .  S
C2149      O2150   1.259       .  A
C2149      C2838   1.477       .  S
C2151      C2156   1.396       .  A
C2152      H2157   1.084       .  S
C2153      C3041   1.475       .  S
C2153      C2154   1.395       .  A
C2154      C2155   1.402       .  A
C2154      H2158   1.083       .  S
C2155      C2164   1.480       .  S
C2155      C2156   1.401       .  A
C2156      H2159   1.082       .  S
C2160      C3920   1.478   1_545  S
C2160      C2161   1.404       .  A
C2160      C2165   1.395       .  A
C2161      C2162   1.403       .  A
C2161      H3198   1.083   1_545  S
C2162      C2991   1.486       .  S
C2162      C2163   1.397       .  A
C2163      C2164   1.403       .  A
C2163      H2167   1.082       .  S
C2164      C2165   1.404       .  A
C2165      H2168   1.082       .  S
H2166      C3193   1.083       .  S
C2169      C2758   1.609       .  S
C2169      C2768   1.602       .  S
C2169      C2778   1.598       .  S
C2169      C2788   1.601       .  S
C2170      C2718   1.584       .  S
C2170      C2728   1.614       .  S
C2170      C2738   1.627       .  S
C2170      C2748   1.602       .  S
C2171      C2678   1.634       .  S
C2171      C2688   1.591       .  S
C2171      C2701   1.586       .  S
C2171      C2711   1.620       .  S
O2172      C2187   1.266       .  A
O2172     Al3212   1.906   1_545  S
C2173      O2183   1.256       .  A
C2173      O2174   1.260       .  A
C2173      C2658   1.474       .  S
O2175      C2177   1.254       .  A
O2175     Al2176   1.882       .  S
Al2176     O2186   1.930       .  S
C2177      O2190   1.257       .  A
C2177      C2648   1.472       .  S
O2178      C2188   1.260   1_455  A
O2179      C2192   1.263       .  A
O2179     Al2189   1.897       .  S
Al2180     O3204   1.906       .  S
Al2180     O3222   1.907       .  S
O2181      C2188   1.264       .  A
O2181     Al2189   1.939       .  S
O2182      C2191   1.267       .  A
O2182     Al3221   1.943   1_545  S
O2183     Al3221   1.889   1_545  S
O2184      C2191   1.261   1_455  A
O2185     Al3221   1.792   1_445  S
O2186      C2187   1.265       .  A
C2187      C2708   1.491       .  S
C2188      C2668   1.511       .  S
Al2189     O3214   1.943       .  S
Al2189     O3215   1.890       .  S
Al2189     O3217   1.792   1_655  S
O2190     Al3212   1.907   1_545  S
C2191      C2751   1.497       .  S
C2192      O2193   1.264       .  A
C2192      C2791   1.499       .  S
C2194      C2641   1.501       .  S
C2194      C2195   1.417       .  A
C2194      C2199   1.400       .  A
C2195      C2196   1.422       .  A
C2195      H2200   1.080       .  S
C2196      C3237   1.513       .  S
C2196      C2197   1.408       .  A
C2197      C2198   1.394       .  A
C2197      H3233   1.078       .  S
C2198      C3730   1.472       .  S
C2198      C2199   1.394       .  A
C2199      H2202   1.084       .  S
H2201      C3229   1.078       .  S
C2203      C2741   1.498       .  S
C2203      C2204   1.409   1_545  A
C2203      C2208   1.402   1_545  A
C2204      C2205   1.416       .  A
C2204      H2209   1.079   1_565  S
C2205      C3228   1.513       .  S
C2205      C2206   1.407       .  A
C2206      C2207   1.406       .  A
C2206      H3242   1.080       .  S
C2207      C3660   1.483       .  S
C2207      C2208   1.404       .  A
C2208      H2211   1.083   1_565  S
H2210      C3238   1.080       .  S
C2212      C2731   1.478       .  S
C2212      C2213   1.393       .  A
C2212      C2217   1.404       .  A
C2213      C2214   1.400   1_655  A
C2213      H2218   1.083       .  S
C2214      C2215   1.408       .  A
C2215      C2216   1.407   1_455  A
C2216      C2217   1.414       .  A
C2217      H2220   1.079       .  S
C2221      C2608   1.487       .  S
C2221      C2222   1.399       .  A
C2221      C2226   1.406       .  A
C2222      C2223   1.399       .  A
C2222      H2227   1.084       .  S
C2223      C2224   1.402       .  A
C2224      C2225   1.409       .  A
C2225      C2226   1.417       .  A
C2226      H2229   1.080       .  S
C2230      C2771   1.482       .  S
C2230      C2231   1.394       .  A
C2230      C2235   1.404       .  A
C2231      C2232   1.404       .  A
C2231      H2236   1.079       .  S
C2232      C2241   1.512       .  S
C2232      C2233   1.414       .  A
C2233      C2234   1.417       .  A
C2233      H2237   1.078       .  S
C2234      C2598   1.520       .  S
C2234      C2235   1.410       .  A
C2235      H2238   1.079       .  S
C2239      C2691   1.472       .  S
C2239      C2240   1.398       .  A
C2239      C2244   1.392       .  A
C2240      C2241   1.418       .  A
C2240      H2245   1.079       .  S
C2241      C2242   1.417       .  A
C2242      C2243   1.404       .  A
C2242      H2246   1.077       .  S
C2243      C2588   1.480       .  S
C2243      C2244   1.393       .  A
C2244      H2247   1.085       .  S
C2248      C2578   1.618       .  S
C2248      C2611   1.611       .  S
C2248      C2638   1.612       .  S
C2248      C2801   1.608       .  S
C2249      C2568   1.645       .  S
C2249      C2591   1.605       .  S
C2249      C2621   1.570       .  S
C2249      C2808   1.614       .  S
C2250      C2558   1.617       .  S
C2250      C2601   1.610       .  S
C2250      C2631   1.608       .  S
C2250      C2821   1.610       .  S
O2251      C2266   1.267       .  A
C2252      O2253   1.268       .  A
C2252      C2831   1.500       .  S
O2253     Al3287   1.919       .  S
O2254      C2256   1.257       .  A
O2254     Al2255   1.910       .  S
Al2255     O3285   1.919       .  S
Al2255     O2263   1.919   1_545  S
Al2255     O2265   1.931       .  S
Al2255     O2264   1.785       .  S
C2256      O2269   1.261       .  A
C2256      C2851   1.500       .  S
O2257      C3299   1.259   1_545  A
O2257     Al2259   1.916       .  S
O2258      C2271   1.264       .  A
O2258     Al2268   1.912       .  S
Al2259     O3304   1.912       .  S
O2260      C2267   1.257       .  A
O2260     Al2268   1.907       .  S
O2261      C2270   1.262       .  A
O2262     Al2268   1.923   1_455  S
O2263      C3302   1.260       .  A
O2265      C2266   1.270       .  A
C2266      C2571   1.510       .  S
C2267      O3289   1.259       .  A
C2267      C2881   1.486       .  S
C2270      O3295   1.260       .  A
C2270      C2581   1.497       .  S
C2271      O2272   1.264       .  A
C2271      C2561   1.491       .  S
O2272     Al3291   1.911       .  S
C2273      C2528   1.619       .  S
C2273      C2538   1.581       .  S
C2273      C2548   1.608       .  S
C2273      C2671   1.625       .  S
C2274      C2498   1.601       .  S
C2274      C2508   1.607       .  S
C2274      C2518   1.614       .  S
C2274      C2651   1.584       .  S
C2275      C2468   1.603       .  S
C2275      C2478   1.614       .  S
C2275      C2491   1.608       .  S
C2275      C2661   1.629       .  S
O2276      C2291   1.264       .  A
O2276     Al2284   1.907       .  S
C2277      O2287   1.259       .  A
C2277      O2278   1.257       .  A
C2277      C2761   1.506       .  S
O2278     Al2280   1.908       .  S
O2279      C2281   1.262       .  A
O2279     Al2280   1.917       .  S
Al2280     O2288   1.912       .  S
Al2280     O2290   1.909       .  S
Al2280     O2289   1.784       .  S
C2281      O2294   1.261       .  A
C2281      C2681   1.515       .  S
O2282      C2292   1.260       .  A
O2282     Al2284   1.900       .  S
O2283      C2296   1.260       .  A
O2283     Al2293   1.904       .  S
Al2284     O2297   1.932       .  S
Al2284     O2294   1.916       .  S
Al2284     O2289   1.786       .  S
O2285      C2292   1.263       .  A
O2285     Al2293   1.911       .  S
O2286      C2295   1.259       .  A
O2286     Al2293   1.898       .  S
O2287     Al2293   1.895       .  S
O2288      C2295   1.265       .  A
O2289     Al2293   1.774       .  S
O2290      C2291   1.263       .  A
C2291      C2521   1.479       .  S
C2292      C2721   1.474       .  S
C2295      C2551   1.479       .  S
C2296      O2297   1.263       .  A
C2296      C2488   1.498       .  S
C2298      C2458   1.487       .  S
C2298      C3331   1.401       .  A
C2298      C2303   1.408       .  A
C2299      C3330   1.401       .  A
C2299      C2300   1.395       .  A
C2299      H2304   1.083   1_565  S
C2300      C2471   1.477   1_565  S
C2300      C3333   1.396       .  A
C2301      C3332   1.396       .  A
C2301      C2302   1.405       .  A
C2301      H2305   1.081       .  S
C2302      C2309   1.493       .  S
C2302      C2303   1.409       .  A
C2303      H2306   1.082       .  S
C2307      C2541   1.480       .  S
C2307      C2308   1.398       .  A
C2307      C2312   1.400       .  A
C2308      C2309   1.405       .  A
C2308      H2313   1.081       .  S
C2309      C2310   1.405       .  A
C2310      C2311   1.407       .  A
C2310      H2314   1.082       .  S
C2311      C2448   1.487       .  S
C2311      C2312   1.403       .  A
C2312      H2315   1.083       .  S
C2316      C2501   1.480   1_565  S
C2316      C2317   1.399       .  A
C2316      C3353   1.403       .  A
C2317      C3350   1.397       .  A
C2317      H2322   1.084   1_565  S
C2318      C2438   1.491       .  S
C2318      C3349   1.397       .  A
C2318      C2319   1.405       .  A
C2319      C2320   1.419       .  A
C2319      H2323   1.080       .  S
C2320      C2329   1.510       .  S
C2320      C2321   1.414       .  A
C2321      C3348   1.403       .  A
C2321      H2324   1.080       .  S
C2325      C2330   1.406       .  A
C2326      H2331   1.083   1_455  S
C2327      C2428   1.497       .  S
C2327      C2328   1.407       .  A
C2328      C2329   1.410       .  A
C2328      H2332   1.080       .  S
C2329      C2330   1.414       .  A
C2330      H2333   1.080       .  S
C2334      C2511   1.489       .  S
C2334      C2335   1.398       .  A
C2334      C2339   1.397       .  A
C2335      C2336   1.405       .  A
C2335      H2340   1.081       .  S
C2336      C2347   1.499       .  S
C2336      C2337   1.410       .  A
C2337      C2338   1.414       .  A
C2337      H2341   1.074       .  S
C2338      C2418   1.518       .  S
C2338      C2339   1.415       .  A
C2339      H2342   1.077       .  S
C2343      C2408   1.483       .  S
C2343      C2348   1.401       .  A
C2344      C2345   1.409       .  A
C2344      H2349   1.082   1_455  S
C2345      C2481   1.502   1_455  S
C2346      C2347   1.409       .  A
C2346      H2350   1.082       .  S
C2347      C2348   1.406       .  A
C2348      H2351   1.080       .  S
C2352      C2398   1.578       .  S
C2352      C2421   1.600       .  S
C2352      C2451   1.621       .  S
C2352      C2971   1.617       .  S
C2353      C3420   1.611       .  S
C2353      C2441   1.609       .  S
C2353      C2461   1.599       .  S
C2353      C2951   1.604       .  S
C2354      C2411   1.611       .  S
C2354      C2431   1.623       .  S
C2354      C2961   1.581       .  S
O2355      C2370   1.265       .  A
O2355     Al2363   1.907       .  S
C2356      O2366   1.257   1_554  A
C2356      O2357   1.269   1_554  A
C2356      C3018   1.500       .  S
O2357     Al2359   1.937       .  S
O2358      C2360   1.262       .  A
O2358     Al2359   1.916       .  S
Al2359     O2367   1.921       .  S
Al2359     O2369   1.935       .  S
Al2359     O2368   1.780       .  S
C2360      O2373   1.254       .  A
C2360      C2981   1.494   1_556  S
O2361      C2371   1.262       .  A
O2361     Al2363   1.900       .  S
O2362      C2375   1.259       .  A
O2362     Al2372   1.904       .  S
Al2363     O2376   1.901       .  S
Al2363     O2373   1.899       .  S
Al2363     O2368   1.785       .  S
O2364      C2371   1.264       .  A
O2364     Al2372   1.917       .  S
O2365      C2374   1.262       .  A
O2365     Al2372   1.920       .  S
O2366     Al2372   1.898       .  S
O2367      C2374   1.263       .  A
O2368     Al2372   1.791       .  S
O2369      C2370   1.268       .  A
C2370      C2391   1.490       .  S
C2371      C3061   1.486   1_556  S
C2374      C2378   1.488       .  S
C2375      O2376   1.260       .  A
C2375      C2401   1.480       .  S
C2377      C2378   1.410       .  A
C2377      C2382   1.430       .  A
C2377     Br2384   1.926       .  S
C2378      C2379   1.393       .  A
C2379      C2380   1.398       .  A
C2379     Br2386   1.934       .  S
C2380      C2381   1.446       .  A
C2380     Br2385   1.937   1_655  S
C2381      C2382   1.440       .  A
C2382     Br2383   1.940       .  S
C2387      C2388   1.450       .  A
C2387      C2392   1.413       .  A
C2387     Br2394   1.934       .  S
C2388      C3385   1.611   1_545  S
C2388      C2389   1.462       .  A
C2389      C2390   1.421       .  A
C2389     Br2396   1.950       .  S
C2390      C2391   1.398       .  A
C2390     Br2395   1.939       .  S
C2391      C2392   1.400       .  A
C2392     Br2393   1.940       .  S
C2397      C2398   1.445       .  A
C2397      C2402   1.412       .  A
C2397     Br2404   1.940       .  S
C2398      C2399   1.443       .  A
C2399      C2400   1.407       .  A
C2399     Br2406   1.942       .  S
C2400      C2401   1.402       .  A
C2400     Br2405   1.940       .  S
C2401      C2402   1.404       .  A
C2402     Br2403   1.939       .  S
C2407      C2408   1.390       .  A
C2407      C2412   1.403       .  A
C2407     Br2414   1.938       .  S
C2409      C2410   1.420       .  A
C2409     Br2416   1.939   1_455  S
C2410     Br2415   1.944   1_455  S
C2411      C2412   1.450       .  A
C2412     Br2413   1.940       .  S
C2417      C2418   1.419       .  A
C2417      C2422   1.410       .  A
C2417     Br2424   1.936       .  S
C2418      C2419   1.410       .  A
C2419      C2420   1.412       .  A
C2419     Br2426   1.942       .  S
C2420      C2421   1.439       .  A
C2420     Br2425   1.910       .  S
C2421      C2422   1.440       .  A
C2422     Br2423   1.939       .  S
C2427      C2432   1.429       .  A
C2427     Br2434   1.935       .  S
C2428      C2429   1.401       .  A
C2429      C2430   1.395       .  A
C2429     Br2436   1.938       .  S
C2430      C2431   1.425       .  A
C2430     Br2435   1.933       .  S
C2432     Br2433   1.940       .  S
C2437      C2438   1.401       .  A
C2437      C2442   1.414       .  A
C2437     Br2444   1.937       .  S
C2438      C2439   1.396       .  A
C2439      C2440   1.410       .  A
C2439     Br2446   1.940       .  S
C2440      C2441   1.458       .  A
C2440     Br2445   1.940       .  S
C2441      C2442   1.454       .  A
C2442     Br2443   1.945       .  S
C2447      C2448   1.409       .  A
C2447      C2452   1.429       .  A
C2447     Br2454   1.943       .  S
C2448      C2449   1.399       .  A
C2449      C2450   1.389       .  A
C2449     Br2456   1.931       .  S
C2450      C2451   1.412       .  A
C2450     Br2455   1.932       .  S
C2451      C2452   1.468       .  A
C2452     Br2453   1.948       .  S
C2457      C3490   1.398       .  A
C2457      C2462   1.402   1_565  A
C2457     Br2464   1.939   1_565  S
C2458      C3489   1.398       .  A
C2458      C2459   1.403       .  A
C2459      C2460   1.411       .  A
C2459     Br2466   1.942       .  S
C2460      C2461   1.457       .  A
C2460     Br2465   1.940       .  S
C2461      C3494   1.449       .  A
C2462      C3493   1.449   1_545  A
C2462     Br2463   1.933       .  S
C2467      C2468   1.460       .  A
C2467      C2472   1.405       .  A
C2467     Br2474   1.955       .  S
C2468      C2469   1.443       .  A
C2469      C2470   1.413       .  A
C2469     Br2476   1.925       .  S
C2470      C2471   1.403       .  A
C2470     Br2475   1.943   1_545  S
C2471      C2472   1.393       .  A
C2472     Br2473   1.945       .  S
C2477      C2478   1.454       .  A
C2477      C2482   1.424   1_655  A
C2478      C2479   1.452       .  A
C2479      C2480   1.402       .  A
C2479     Br2486   1.926       .  S
C2480      C2481   1.403       .  A
C2480     Br2485   1.944       .  S
C2481      C2482   1.411   1_655  A
C2487      C2488   1.405       .  A
C2487      C2492   1.414       .  A
C2487     Br2494   1.948       .  S
C2488      C2489   1.406       .  A
C2489      C2490   1.425       .  A
C2489     Br2496   1.942       .  S
C2490      C2491   1.459       .  A
C2490     Br2495   1.944       .  S
C2491      C2492   1.451       .  A
C2492     Br2493   1.933       .  S
C2497      C2498   1.446       .  A
C2497      C2502   1.417       .  A
C2497     Br2504   1.914       .  S
C2498      C2499   1.450       .  A
C2499      C2500   1.405       .  A
C2499     Br2506   1.942       .  S
C2500      C2501   1.395       .  A
C2500     Br2505   1.935       .  S
C2501      C2502   1.399       .  A
C2502     Br3535   1.940   1_545  S
Br2503     C3534   1.940       .  S
C2507      C2508   1.446       .  A
C2507      C2512   1.385       .  A
C2507     Br2514   1.937       .  S
C2508      C2509   1.452       .  A
C2509      C2510   1.431       .  A
C2509     Br2516   1.929       .  S
C2510      C2511   1.409       .  A
C2510     Br2515   1.934       .  S
C2511      C2512   1.397       .  A
C2512     Br2513   1.939       .  S
C2517      C2518   1.446       .  A
C2517      C2522   1.393       .  A
C2517     Br2524   1.951       .  S
C2518      C2519   1.451       .  A
C2519      C2520   1.425       .  A
C2519     Br2526   1.923       .  S
C2520      C2521   1.402       .  A
C2520     Br2525   1.934       .  S
C2521      C2522   1.397       .  A
C2522     Br2523   1.935       .  S
C2527      C2528   1.456       .  A
C2527      C2532   1.398       .  A
C2527     Br2534   1.950       .  S
C2528      C2529   1.453       .  A
C2529      C2530   1.426       .  A
C2529     Br2536   1.933       .  S
C2530      C2531   1.400       .  A
C2531      C2532   1.391       .  A
C2532     Br2533   1.942       .  S
C2537      C2538   1.450       .  A
C2537      C2542   1.413       .  A
C2537     Br2544   1.949       .  S
C2538      C2539   1.445       .  A
C2539      C2540   1.406       .  A
C2539     Br2546   1.941       .  S
C2540      C2541   1.406       .  A
C2540     Br2545   1.946       .  S
C2541      C2542   1.399       .  A
C2542     Br2543   1.937       .  S
C2547      C2548   1.451       .  A
C2547      C2552   1.405       .  A
C2547     Br2554   1.924       .  S
C2548      C2549   1.455       .  A
C2549      C2550   1.419       .  A
C2549     Br2556   1.911       .  S
C2550      C2551   1.391       .  A
C2550     Br2555   1.937       .  S
C2551      C2552   1.394       .  A
C2552     Br2553   1.938       .  S
C2557      C2558   1.452       .  A
C2557      C2562   1.418       .  A
C2557     Br2564   1.929       .  S
C2558      C2559   1.461       .  A
C2559      C2560   1.416       .  A
C2559     Br2566   1.953       .  S
C2560      C2561   1.398       .  A
C2560     Br2565   1.942       .  S
C2561      C2562   1.401       .  A
C2562     Br2563   1.945       .  S
C2567      C2568   1.434       .  A
C2567      C2572   1.411       .  A
C2567     Br2574   1.936       .  S
C2568      C2569   1.466       .  A
C2569      C2570   1.428       .  A
C2569     Br2576   1.958       .  S
C2570      C2571   1.412       .  A
C2571      C2572   1.406       .  A
C2572     Br2573   1.930       .  S
C2577      C2578   1.460       .  A
C2577      C2582   1.423       .  A
C2577     Br2584   1.947       .  S
C2578      C2579   1.453       .  A
C2579      C2580   1.418       .  A
C2579     Br2586   1.929       .  S
C2580      C2581   1.400       .  A
C2580     Br2585   1.941       .  S
C2581      C2582   1.400       .  A
C2582     Br3615   1.940       .  S
Br2583     C3614   1.940   1_545  S
C2587      C2588   1.397       .  A
C2587      C2592   1.400       .  A
C2587     Br2594   1.947       .  S
C2588      C2589   1.403       .  A
C2589      C2590   1.417       .  A
C2589     Br2596   1.934       .  S
C2590      C2591   1.446       .  A
C2590     Br2595   1.949       .  S
C2591      C2592   1.460       .  A
C2592     Br2593   1.965       .  S
C2597      C2598   1.415       .  A
C2597      C2602   1.415       .  A
C2597     Br2604   1.933       .  S
C2598      C2599   1.408       .  A
C2599      C2600   1.414       .  A
C2599     Br2606   1.948       .  S
C2600      C2601   1.450       .  A
C2600     Br2605   1.931       .  S
C2601      C2602   1.448       .  A
C2602     Br2603   1.937       .  S
C2607      C2608   1.399       .  A
C2607      C2612   1.419       .  A
C2608      C2609   1.395       .  A
C2609      C2610   1.408       .  A
C2609     Br2616   1.942       .  S
C2610      C2611   1.458       .  A
C2610     Br2615   1.944       .  S
C2611      C2612   1.458       .  A
C2612     Br2613   1.943       .  S
C2617      C2618   1.405       .  A
C2617      C2622   1.405       .  A
C2617     Br2624   1.941       .  S
C2618      C2619   1.407       .  A
C2619      C2620   1.406       .  A
C2619     Br2626   1.938       .  S
C2620      C2621   1.449       .  A
C2620     Br2625   1.938       .  S
C2621      C2622   1.445       .  A
C2622     Br2623   1.936       .  S
C2627      C2628   1.392       .  A
C2627      C2632   1.398       .  A
C2627     Br2634   1.945       .  S
C2628      C3239   1.483       .  S
C2628      C3661   1.398       .  A
C2629      C3660   1.398       .  A
C2629      C3662   1.422       .  A
C2629     Br2636   1.939   1_565  S
C2630      C3661   1.422       .  A
C2630      C2631   1.461       .  A
C2630     Br2635   1.940       .  S
C2631      C2632   1.455       .  A
C2632     Br2633   1.939       .  S
C2637      C2638   1.460       .  A
C2637      C2642   1.417       .  A
C2637     Br2644   1.932       .  S
C2638      C2639   1.447       .  A
C2639      C2640   1.406       .  A
C2639     Br2646   1.934       .  S
C2640      C2641   1.404       .  A
C2640     Br2645   1.933       .  S
C2641      C2642   1.403       .  A
C2642     Br2643   1.941       .  S
C2647      C2648   1.401       .  A
C2647      C2652   1.411       .  A
C2647     Br3686   1.925   1_545  S
C2648      C2649   1.396       .  A
C2649      C2650   1.407       .  A
C2649     Br2656   1.943       .  S
C2650      C2651   1.452       .  A
C2650     Br2655   1.937       .  S
C2651      C2652   1.444       .  A
C2652     Br2653   1.948       .  S
Br2654     C3679   1.925       .  S
C2657      C2658   1.388       .  A
C2657      C2662   1.412       .  A
C2657     Br2664   1.939       .  S
C2658      C2659   1.391       .  A
C2659      C2660   1.420       .  A
C2659     Br2666   1.944       .  S
C2660      C2661   1.471       .  A
C2660     Br2665   1.953       .  S
C2661      C2662   1.454       .  A
C2662     Br2663   1.923       .  S
C2667      C2668   1.415       .  A
C2667      C2672   1.427       .  A
C2667     Br2674   1.949       .  S
C2668      C2669   1.411       .  A
C2669      C2670   1.410       .  A
C2670      C2671   1.437       .  A
C2670     Br2675   1.935       .  S
C2671      C2672   1.464       .  A
C2672     Br2673   1.943       .  S
C2677      C2678   1.430       .  A
C2677      C2682   1.401       .  A
C2677     Br2684   1.945       .  S
C2678      C2679   1.454       .  A
C2679      C2680   1.426       .  A
C2679     Br2686   1.946       .  S
C2680      C2681   1.416       .  A
C2680     Br2685   1.943       .  S
C2681      C2682   1.411       .  A
C2682     Br2683   1.940       .  S
C2687      C2688   1.444       .  A
C2687      C2692   1.388       .  A
C2687     Br2694   1.943       .  S
C2688      C2689   1.437       .  A
C2689      C2690   1.423       .  A
C2689     Br2696   1.941       .  S
C2690      C2691   1.411       .  A
C2690     Br2695   1.928       .  S
C2691      C2692   1.390       .  A
C2692     Br2693   1.939       .  S
C2697      C2698   1.392       .  A
C2697      C2702   1.401       .  A
C2697     Br2704   1.943       .  S
C2698      C3230   1.472       .  S
C2698      C2699   1.397       .  A
C2699      C2700   1.408       .  A
C2699     Br3738   1.933   1_545  S
C2700      C2701   1.449       .  A
C2700     Br2705   1.943       .  S
C2701      C2702   1.451       .  A
C2702     Br2703   1.926       .  S
Br2706     C3731   1.933       .  S
C2707      C2708   1.397       .  A
C2707      C2712   1.421       .  A
C2707     Br2714   1.940       .  S
C2708      C2709   1.398       .  A
C2709      C2710   1.413       .  A
C2709     Br3748   1.937       .  S
C2710      C2711   1.446       .  A
C2710     Br2715   1.929       .  S
C2711      C2712   1.459       .  A
C2712     Br2713   1.940       .  S
Br2716     C3741   1.937       .  S
C2717      C2718   1.445       .  A
C2717      C2722   1.415       .  A
C2717     Br2724   1.917       .  S
C2718      C2719   1.442       .  A
C2719      C2720   1.401       .  A
C2719     Br2726   1.940       .  S
C2720      C2721   1.393       .  A
C2720     Br2725   1.927       .  S
C2721      C2722   1.398       .  A
C2722     Br2723   1.936       .  S
C2727      C2728   1.446       .  A
C2727      C2732   1.404       .  A
C2727     Br2734   1.933       .  S
C2728      C2729   1.457       .  A
C2729      C2730   1.416       .  A
C2729     Br2736   1.942       .  S
C2730      C2731   1.400       .  A
C2731      C2732   1.389       .  A
C2732     Br2733   1.935       .  S
C2737      C2738   1.426       .  A
C2737      C2742   1.396       .  A
C2737     Br2744   1.936       .  S
C2738      C2739   1.452       .  A
C2739      C2740   1.430       .  A
C2739     Br2746   1.940       .  S
C2740      C2741   1.410       .  A
C2740     Br3777   1.936   1_545  S
C2741      C2742   1.400       .  A
C2742     Br2743   1.933       .  S
Br2745     C3772   1.936       .  S
C2747      C2748   1.446       .  A
C2747      C2752   1.424       .  A
C2747     Br2754   1.943       .  S
C2748      C2749   1.458       .  A
C2749      C2750   1.415       .  A
C2749     Br2756   1.951       .  S
C2750      C2751   1.399       .  A
C2750     Br2755   1.941       .  S
C2751      C2752   1.401       .  A
C2752     Br2753   1.924       .  S
C2757      C2758   1.450       .  A
C2757      C2762   1.419       .  A
C2757     Br2764   1.942       .  S
C2758      C2759   1.462       .  A
C2759      C2760   1.413       .  A
C2759     Br2766   1.955       .  S
C2760      C2761   1.401       .  A
C2760     Br2765   1.952       .  S
C2761      C2762   1.412       .  A
C2762     Br2763   1.947       .  S
C2767      C2768   1.448       .  A
C2767      C2772   1.392       .  A
C2767     Br2774   1.931       .  S
C2768      C2769   1.459       .  A
C2769      C2770   1.415       .  A
C2769     Br2776   1.941       .  S
C2770      C2771   1.401       .  A
C2770     Br2775   1.936       .  S
C2771      C2772   1.393       .  A
C2772     Br2773   1.930       .  S
C2777      C2778   1.459       .  A
C2777      C2782   1.415       .  A
C2777     Br2784   1.948       .  S
C2778      C2779   1.451       .  A
C2779      C2780   1.404       .  A
C2779     Br2786   1.937       .  S
C2780      C2781   1.397       .  A
C2780     Br2785   1.942       .  S
C2781      C2782   1.398       .  A
C2787      C2788   1.445       .  A
C2787      C2792   1.405       .  A
C2787     Br2794   1.934       .  S
C2788      C2789   1.457       .  A
C2789      C2790   1.417       .  A
C2789     Br2796   1.948       .  S
C2790      C2791   1.406       .  A
C2790     Br2795   1.935       .  S
C2791      C2792   1.408       .  A
C2797      C2798   1.402       .  A
C2797      C2802   1.420       .  A
C2797     Br2804   1.941       .  S
C2798      C2799   1.394       .  A
C2799      C2800   1.405       .  A
C2799     Br2806   1.938       .  S
C2800      C2801   1.456       .  A
C2800     Br2805   1.956       .  S
C2801      C2802   1.452       .  A
C2802     Br2803   1.937       .  S
C2807      C2808   1.462       .  A
C2807      C2812   1.404       .  A
C2807     Br2814   1.936       .  S
C2808      C2809   1.448       .  A
C2809      C2810   1.420       .  A
C2809     Br2816   1.914       .  S
C2810      C2811   1.396       .  A
C2810     Br2815   1.940       .  S
C2811      C2812   1.386       .  A
C2812     Br2813   1.942       .  S
C2817      C2818   1.394       .  A
C2817      C2822   1.413       .  A
C2817     Br2824   1.936       .  S
C2818      C2819   1.395       .  A
C2819      C2820   1.411       .  A
C2819     Br2826   1.934       .  S
C2820      C2821   1.457       .  A
C2820     Br2825   1.957       .  S
C2821      C2822   1.453       .  A
C2822     Br2823   1.927       .  S
C2827      C2828   1.456       .  A
C2827      C2832   1.425       .  A
C2827     Br2834   1.937       .  S
C2828      C2829   1.454       .  A
C2829      C2830   1.415       .  A
C2829     Br2836   1.928       .  S
C2830      C2831   1.399       .  A
C2830     Br3867   1.947       .  S
C2831      C2832   1.409       .  A
Br2835     C3862   1.947   1_545  S
C2837      C2838   1.394       .  A
C2837      C2842   1.410       .  A
C2837     Br2844   1.939       .  S
C2838      C2839   1.391       .  A
C2839      C2840   1.419       .  A
C2839     Br2846   1.938       .  S
C2840      C2841   1.451       .  A
C2840     Br2845   1.920       .  S
C2841      C2842   1.464       .  A
C2842     Br2843   1.960       .  S
C2847      C2848   1.396       .  A
C2847      C2852   1.396       .  A
C2847     Br2854   1.928       .  S
C2848      C2849   1.435       .  A
C2849      C2850   1.430       .  A
C2849     Br2856   1.925       .  S
C2850      C2851   1.430       .  A
C2850     Br2855   1.941       .  S
C2851      C2852   1.416       .  A
C2857      C2858   1.402       .  A
C2857      C2862   1.427       .  A
C2858      C2859   1.390       .  A
C2859      C2860   1.389       .  A
C2859     Br2866   1.935       .  S
C2860      C2861   1.430       .  A
C2860     Br2865   1.911       .  S
C2861      C2862   1.451       .  A
C2862     Br2863   1.927       .  S
C2867      C2868   1.425       .  A
C2867      C2872   1.404       .  A
C2867     Br2874   1.937       .  S
C2868      C2869   1.438       .  A
C2869      C2870   1.419       .  A
C2869     Br2876   1.942       .  S
C2870      C2871   1.415       .  A
C2870     Br2875   1.941       .  S
C2871      C2872   1.410       .  A
C2872     Br2873   1.935       .  S
C2877      C2878   1.457       .  A
C2877      C2882   1.423       .  A
C2877     Br2884   1.941       .  S
C2878      C2879   1.452       .  A
C2879      C2880   1.409       .  A
C2879     Br2886   1.949       .  S
C2880      C2881   1.395       .  A
C2880     Br2885   1.933       .  S
C2881      C2882   1.399       .  A
C2882     Br2883   1.938       .  S
C2887      C2888   1.392       .  A
C2887      C2892   1.403       .  A
C2887     Br2894   1.940       .  S
C2888      C3192   1.478       .  S
C2888      C3921   1.405       .  A
C2889      C3920   1.405       .  A
C2889      C3922   1.413       .  A
C2889     Br2896   1.941   1_565  S
C2890      C3921   1.413       .  A
C2890      C2891   1.443       .  A
C2890     Br3927   1.927       .  S
C2891      C2892   1.444       .  A
C2892     Br2893   1.921       .  S
Br2895     C3922   1.926       .  S
C2897      C2898   1.412       .  A
C2897      C2902   1.420       .  A
C2897     Br2904   1.944       .  S
C2898      C2899   1.417       .  A
C2899      C2900   1.407       .  A
C2899     Br2906   1.943       .  S
C2900      C2901   1.440       .  A
C2900     Br2905   1.947       .  S
C2901      C2902   1.451       .  A
C2902     Br2903   1.943       .  S
C2907      C2908   1.409       .  A
C2907      C2912   1.391       .  A
C2907     Br2914   1.927       .  S
C2908      C2909   1.411       .  A
C2909      C2910   1.423       .  A
C2909     Br2916   1.935       .  S
C2910      C2911   1.460       .  A
C2910     Br2915   1.948       .  S
C2911      C2912   1.415       .  A
C2912     Br2913   1.924       .  S
C2917      C2918   1.400       .  A
C2917      C2922   1.419       .  A
C2918      C2919   1.384       .  A
C2919      C2920   1.391       .  A
C2919     Br2926   1.940       .  S
C2920      C2921   1.455       .  A
C2920     Br2925   1.948       .  S
C2921      C2922   1.450       .  A
C2922     Br2923   1.927       .  S
C2927      C2928   1.456       .  A
C2927      C2932   1.424       .  A
C2927     Br2934   1.937       .  S
C2928      C2929   1.460       .  A
C2929      C2930   1.405       .  A
C2929     Br2936   1.938       .  S
C2930      C2931   1.397       .  A
C2930     Br2935   1.958       .  S
C2931      C2932   1.401       .  A
C2932     Br3965   1.940       .  S
Br2933     C3964   1.940   1_545  S
C2937      C2938   1.447       .  A
C2937      C2942   1.403       .  A
C2937     Br2944   1.945       .  S
C2938      C2939   1.444       .  A
C2939      C2940   1.406       .  A
C2939     Br2946   1.918       .  S
C2940      C2941   1.402       .  A
C2940     Br2945   1.937       .  S
C2941      C2942   1.404       .  A
C2942     Br2943   1.936       .  S
C2947      C2948   1.397       .  A
C2947      C2952   1.405       .  A
C2947     Br2954   1.932       .  S
C2948      C2949   1.396       .  A
C2949      C2950   1.416       .  A
C2949     Br2956   1.939       .  S
C2950      C2951   1.455       .  A
C2950     Br2955   1.934       .  S
C2951      C2952   1.455       .  A
C2952     Br2953   1.956       .  S
C2957      C2958   1.405       .  A
C2957      C2962   1.404       .  A
C2957     Br2964   1.937       .  S
C2958      C2959   1.399       .  A
C2959      C2960   1.407       .  A
C2959     Br2966   1.944       .  S
C2960      C2961   1.442       .  A
C2960     Br2965   1.926       .  S
C2961      C2962   1.443       .  A
C2962     Br2963   1.952       .  S
C2967      C2968   1.393       .  A
C2967      C2972   1.415       .  A
C2967     Br2974   1.934       .  S
C2968      C2969   1.389       .  A
C2969      C2970   1.401       .  A
C2969     Br2976   1.928       .  S
C2970      C2971   1.449       .  A
C2970     Br2975   1.941       .  S
C2971      C2972   1.457       .  A
C2972     Br2973   1.942       .  S
C2977      C2978   1.454       .  A
C2977      C2982   1.418       .  A
C2977     Br2984   1.936       .  S
C2978      C2979   1.465       .  A
C2979      C2980   1.419       .  A
C2979     Br2986   1.959       .  S
C2980      C2981   1.403       .  A
C2980     Br2985   1.951       .  S
C2981      C2982   1.397       .  A
C2982     Br2983   1.944   1_554  S
C2987      C2988   1.456       .  A
C2987      C2992   1.403       .  A
C2987     Br4026   1.932   1_545  S
C2988      C2989   1.451       .  A
C2989      C2990   1.408       .  A
C2989     Br2996   1.938       .  S
C2990      C2991   1.405       .  A
C2990     Br2995   1.939       .  S
C2991      C2992   1.396       .  A
C2992     Br4025   1.938       .  S
Br2993     C4024   1.938       .  S
Br2994     C4019   1.932       .  S
C2997      C2998   1.452       .  A
C2997      C3002   1.400       .  A
C2997     Br3004   1.937       .  S
C2998      C2999   1.461   1_545  A
C2999      C3000   1.417   1_565  A
C2999     Br3006   1.948       .  S
C3000      C3001   1.396       .  A
C3000     Br3005   1.939   1_545  S
C3001      C3002   1.393       .  A
C3002     Br3003   1.945       .  S
C3007      C3008   1.400       .  A
C3007      C3012   1.419       .  A
C3007     Br3014   1.938       .  S
C3008      C3009   1.399       .  A
C3009      C3010   1.411       .  A
C3009     Br3016   1.945       .  S
C3010      C3011   1.451       .  A
C3010     Br3015   1.935       .  S
C3011      C3099   1.607       .  S
C3011      C3012   1.463       .  A
C3012     Br3013   1.955       .  S
C3017      C3018   1.404       .  A
C3017      C3022   1.425       .  A
C3017     Br3024   1.943       .  S
C3018      C3019   1.391       .  A
C3019      C3020   1.410       .  A
C3019     Br3026   1.935       .  S
C3020      C3021   1.470       .  A
C3020     Br3025   1.962       .  S
C3021      C3022   1.449       .  A
C3022     Br3023   1.920       .  S
C3027      C3032   1.419       .  A
C3027     Br3034   1.934       .  S
C3028      C3029   1.460       .  A
C3029      C3030   1.404       .  A
C3029     Br3036   1.955   1_655  S
C3030      C3031   1.395       .  A
C3030     Br3035   1.942       .  S
C3032     Br3033   1.928       .  S
C3037      C3042   1.415       .  A
C3037     Br3044   1.936       .  S
C3038      C3039   1.459       .  A
C3039      C3040   1.405       .  A
C3039     Br3046   1.962       .  S
C3040      C3041   1.401       .  A
C3040     Br3045   1.943       .  S
C3042     Br3043   1.940       .  S
C3047      C3048   1.450       .  A
C3047      C3052   1.419       .  A
C3047     Br3054   1.915       .  S
C3048      C3049   1.452       .  A
C3049      C3050   1.409       .  A
C3049     Br3056   1.931       .  S
C3050      C3051   1.393       .  A
C3050     Br3055   1.935   1_554  S
C3051      C3052   1.392       .  A
C3052     Br3053   1.940       .  S
C3057      C3058   1.449       .  A
C3057      C3062   1.410       .  A
C3057     Br3064   1.927       .  S
C3058      C3059   1.451       .  A
C3059      C3060   1.403       .  A
C3059     Br3066   1.948       .  S
C3060      C3061   1.397       .  A
C3060     Br3065   1.928       .  S
C3061      C3062   1.400       .  A
C3062     Br3063   1.929   1_554  S
C3067      C3068   1.450       .  A
C3067      C3072   1.408       .  A
C3067     Br3074   1.931       .  S
C3068      C3069   1.444       .  A
C3069      C3070   1.407       .  A
C3069     Br3076   1.938       .  S
C3070      C3071   1.411       .  A
C3070     Br3075   1.942       .  S
C3071      C3072   1.403       .  A
C3072     Br3073   1.940       .  S
C3077      C3078   1.454       .  A
C3077      C3082   1.407       .  A
C3077     Br3084   1.943       .  S
C3078      C3079   1.455       .  A
C3079      C3080   1.403       .  A
C3079     Br3086   1.931       .  S
C3080      C3081   1.388       .  A
C3080     Br3085   1.940       .  S
C3081      C3082   1.396       .  A
C3082     Br3083   1.935       .  S
C3087      C3088   1.447       .  A
C3087      C3092   1.417       .  A
C3087     Br3094   1.938       .  S
C3088      C3089   1.448       .  A
C3089      C3090   1.392       .  A
C3089     Br3096   1.945       .  S
C3090      C3091   1.386       .  A
C3090     Br3095   1.917       .  S
C3091      C3092   1.419       .  A
C3092     Br3093   1.950       .  S
C3097      C4090   1.602       .  S
C3097      C4100   1.594       .  S
C3097      C4110   1.597       .  S
C3097      C4120   1.596       .  S
C3098      C4053   1.635       .  S
C3098      C4060   1.636       .  S
C3098      C4070   1.579       .  S
C3099      C4010   1.618       .  S
C3099      C4020   1.604       .  S
C3099      C4030   1.600       .  S
O3100      C3115   1.272       .  A
O3100     Al3108   1.938   1_554  S
C3101      O3111   1.256       .  A
C3101      O3102   1.250       .  A
C3101      C3990   1.471       .  S
O3102     Al3104   1.864       .  S
O3103      C3105   1.260       .  A
O3103     Al3104   1.904       .  S
Al3104     O3112   1.905   1_556  S
Al3104     O3114   1.857   1_556  S
Al3104     O3113   1.785       .  S
C3105      O3118   1.255       .  A
C3105      C4000   1.476       .  S
O3106      C3116   1.263       .  A
O3106     Al3108   1.910       .  S
O3107      C3120   1.260       .  A
O3107     Al3117   1.903   1_554  S
Al3108     O3121   1.903   1_556  S
Al3108     O3118   1.901       .  S
Al3108     O3113   1.801       .  S
O3109      C3116   1.259       .  A
O3109     Al3117   1.899       .  S
O3110      C3119   1.259       .  A
O3110     Al3117   1.907   1_554  S
O3111     Al3117   1.891       .  S
O3112      C3119   1.262       .  A
O3113     Al3117   1.791       .  S
O3114      C3115   1.249       .  A
C3115      C4123   1.492       .  S
C3116      C3980   1.477       .  S
C3119      C4083   1.478       .  S
C3120      O3121   1.259       .  A
C3120      C4040   1.489       .  S
C3122      C3973   1.490       .  S
C3122      C3123   1.404       .  A
C3122      C3127   1.404       .  A
C3123      C3124   1.406       .  A
C3123      H3128   1.082       .  S
C3124      C3133   1.488       .  S
C3124      C3125   1.402       .  A
C3125      C3126   1.396       .  A
C3125      H3129   1.081       .  S
C3126      C4113   1.472       .  S
C3126      C3127   1.398       .  A
C3127      H3130   1.083       .  S
C3131      C3963   1.484       .  S
C3131      C3136   1.403       .  A
C3132      C3133   1.406       .  A
C3132      H3137   1.082       .  S
C3133      C3134   1.404       .  A
C3134      C3135   1.399       .  A
C3134      H3138   1.082       .  S
C3135      C4033   1.475       .  S
C3136      H3139   1.083   1_545  S
C3140      C3950   1.465       .  S
C3140      C3145   1.395       .  A
C3141      C3142   1.402       .  A
C3141      H3146   1.081       .  S
C3142      C3153   1.495       .  S
C3142      C3143   1.421       .  A
C3143      C3144   1.404       .  A
C3143      H3147   1.073       .  S
C3144      C4063   1.492       .  S
C3145      H3148   1.084       .  S
C3149      C4103   1.503       .  S
C3149      C3150   1.411       .  A
C3149      C3154   1.404       .  A
C3150      C3151   1.404       .  A
C3150      H3155   1.074       .  S
C3151      C3940   1.499       .  S
C3151      C3152   1.400       .  A
C3152      C3153   1.412       .  A
C3152      H3156   1.080       .  S
C3153      C3154   1.401       .  A
C3154      H3157   1.081       .  S
C3158      C3910   1.626       .  S
C3158      C3923   1.589       .  S
C3158      C3933   1.583       .  S
C3158      C3943   1.609       .  S
C3159      C3880   1.593       .  S
C3159      C3893   1.622       .  S
C3159      C3900   1.607       .  S
C3159      C3970   1.604       .  S
C3160      C3860   1.613       .  S
C3160      C3873   1.617       .  S
C3160      C3953   1.613       .  S
C3160      C3960   1.612       .  S
O3161      C3176   1.264       .  A
O3161     Al3169   1.923       .  S
C3162      O3172   1.263       .  A
C3162      O3163   1.265       .  A
C3162      C3850   1.478       .  S
O3163     Al3165   1.905       .  S
O3164      C3166   1.255       .  A
O3164     Al3165   1.906       .  S
Al3165     O3173   1.883       .  S
Al3165     O3175   1.904       .  S
Al3165     O3174   1.785       .  S
C3166      O3179   1.255       .  A
C3166      C3843   1.473       .  S
O3167      C3177   1.262       .  A
O3167     Al3169   1.901       .  S
O3168      C3181   1.258       .  A
O3168     Al3178   1.904       .  S
Al3169     O3182   1.902       .  S
Al3169     O3179   1.884       .  S
Al3169     O3174   1.786       .  S
O3170      C3177   1.259       .  A
O3170     Al3178   1.899       .  S
O3171      C3180   1.262       .  A
O3171     Al3178   1.922       .  S
O3172     Al3178   1.913       .  S
O3173      C3180   1.252       .  A
O3174     Al3178   1.796       .  S
O3175      C3176   1.265       .  A
C3176      C3903   1.498       .  S
C3177      C3830   1.482       .  S
C3180      C3930   1.506       .  S
C3181      O3182   1.259       .  A
C3181      C3870   1.476       .  S
C3183      C3188   1.396       .  A
C3184      H3189   1.084       .  S
C3185      C4073   1.475       .  S
C3185      C3186   1.395       .  A
C3186      C3187   1.402       .  A
C3186      H3190   1.083       .  S
C3187      C3196   1.480       .  S
C3187      C3188   1.401       .  A
C3188      H3191   1.082       .  S
C3192      C3193   1.404       .  A
C3192      C3197   1.395       .  A
C3193      C3194   1.404       .  A
C3194      C4023   1.486       .  S
C3194      C3195   1.397       .  A
C3195      C3196   1.403       .  A
C3195      H3199   1.082       .  S
C3196      C3197   1.404       .  A
C3197      H3200   1.082       .  S
C3201      C3790   1.609       .  S
C3201      C3800   1.602       .  S
C3201      C3810   1.598       .  S
C3201      C3820   1.601       .  S
C3202      C3750   1.584       .  S
C3202      C3760   1.614       .  S
C3202      C3770   1.627       .  S
C3202      C3780   1.602       .  S
C3203      C3710   1.634       .  S
C3203      C3720   1.591       .  S
C3203      C3733   1.586       .  S
C3203      C3743   1.620       .  S
O3204      C3219   1.266       .  A
C3205      O3215   1.256       .  A
C3205      O3206   1.260       .  A
C3205      C3690   1.474       .  S
O3207      C3209   1.254       .  A
O3207     Al3208   1.882       .  S
Al3208     O3218   1.930       .  S
C3209      O3222   1.257       .  A
C3209      C3680   1.472       .  S
O3210      C3220   1.260   1_455  A
O3211      C3224   1.263       .  A
O3211     Al3221   1.897       .  S
O3213      C3220   1.264       .  A
O3213     Al3221   1.939       .  S
O3214      C3223   1.267       .  A
O3216      C3223   1.261   1_455  A
O3218      C3219   1.265       .  A
C3219      C3740   1.491       .  S
C3220      C3700   1.511       .  S
C3223      C3783   1.496       .  S
C3224      O3225   1.264       .  A
C3224      C3823   1.499       .  S
C3226      C3673   1.501       .  S
C3226      C3227   1.417       .  A
C3226      C3231   1.400       .  A
C3227      C3228   1.422       .  A
C3227      H3232   1.080       .  S
C3228      C3229   1.408   1_565  A
C3229      C3230   1.394       .  A
C3230      C3231   1.394   1_545  A
C3231      H3234   1.084   1_565  S
C3235      C3773   1.498       .  S
C3235      C3236   1.409       .  A
C3235      C3240   1.402       .  A
C3236      C3237   1.416       .  A
C3236      H3241   1.079       .  S
C3237      C3238   1.407       .  A
C3238      C3239   1.406       .  A
C3239      C3240   1.404       .  A
C3240      H3243   1.083       .  S
C3244      C3763   1.478       .  S
C3244      C3245   1.393       .  A
C3244      C3249   1.404       .  A
C3245      C3246   1.400   1_655  A
C3245      H3250   1.083       .  S
C3246      C3247   1.408       .  A
C3247      C3248   1.407   1_455  A
C3248      C3249   1.414       .  A
C3249      H3252   1.079       .  S
C3253      C3640   1.487       .  S
C3253      C3254   1.399       .  A
C3253      C3258   1.406       .  A
C3254      C3255   1.399       .  A
C3254      H3259   1.084       .  S
C3255      C3256   1.402       .  A
C3256      C3257   1.409       .  A
C3257      C3258   1.417       .  A
C3258      H3261   1.080       .  S
C3262      C3803   1.482       .  S
C3262      C3263   1.394       .  A
C3262      C3267   1.404       .  A
C3263      C3264   1.404       .  A
C3263      H3268   1.079       .  S
C3264      C3273   1.512       .  S
C3264      C3265   1.414       .  A
C3265      C3266   1.417       .  A
C3265      H3269   1.078       .  S
C3266      C3630   1.520       .  S
C3266      C3267   1.410       .  A
C3267      H3270   1.079       .  S
C3271      C3723   1.473       .  S
C3271      C3272   1.398       .  A
C3271      C3276   1.392       .  A
C3272      C3273   1.418       .  A
C3272      H3277   1.079       .  S
C3273      C3274   1.417       .  A
C3274      C3275   1.404       .  A
C3274      H3278   1.077       .  S
C3275      C3620   1.480       .  S
C3275      C3276   1.393       .  A
C3276      H3279   1.085       .  S
C3280      C3610   1.618       .  S
C3280      C3643   1.611       .  S
C3280      C3670   1.612       .  S
C3280      C3833   1.608       .  S
C3281      C3600   1.645       .  S
C3281      C3623   1.605       .  S
C3281      C3653   1.571       .  S
C3281      C3840   1.614       .  S
C3282      C3590   1.617       .  S
C3282      C3633   1.610       .  S
C3282      C3663   1.608       .  S
C3282      C3853   1.610       .  S
O3283      C3298   1.267       .  A
C3284      O3285   1.268   1_565  A
C3284      C3863   1.500       .  S
O3286      C3288   1.257       .  A
O3286     Al3287   1.910       .  S
Al3287     O3295   1.919       .  S
Al3287     O3297   1.931       .  S
Al3287     O3296   1.785       .  S
C3288      O3301   1.261       .  A
C3288      C3883   1.500       .  S
O3289     Al3291   1.916       .  S
O3290      C3303   1.264       .  A
O3290     Al3300   1.912       .  S
O3292      C3299   1.257       .  A
O3292     Al3300   1.907       .  S
O3293      C3302   1.262       .  A
O3294     Al3300   1.923   1_455  S
O3297      C3298   1.270       .  A
C3298      C3603   1.510       .  S
C3299      C3913   1.486       .  S
C3302      C3613   1.497       .  S
C3303      O3304   1.264   1_565  A
C3303      C3593   1.491       .  S
C3305      C3560   1.619       .  S
C3305      C3570   1.581       .  S
C3305      C3580   1.608       .  S
C3305      C3703   1.625       .  S
C3306      C3530   1.601       .  S
C3306      C3540   1.607       .  S
C3306      C3550   1.614       .  S
C3306      C3683   1.584       .  S
C3307      C3500   1.603       .  S
C3307      C3510   1.614       .  S
C3307      C3523   1.608       .  S
C3307      C3693   1.629       .  S
O3308      C3323   1.264       .  A
O3308     Al3316   1.907       .  S
C3309      O3319   1.259       .  A
C3309      O3310   1.257       .  A
C3309      C3793   1.506       .  S
O3310     Al3312   1.908       .  S
O3311      C3313   1.262       .  A
O3311     Al3312   1.917       .  S
Al3312     O3320   1.912       .  S
Al3312     O3322   1.909       .  S
Al3312     O3321   1.784       .  S
C3313      O3326   1.261       .  A
C3313      C3713   1.515       .  S
O3314      C3324   1.260       .  A
O3314     Al3316   1.901       .  S
O3315      C3328   1.260       .  A
O3315     Al3325   1.904       .  S
Al3316     O3329   1.932       .  S
Al3316     O3326   1.916       .  S
Al3316     O3321   1.786       .  S
O3317      C3324   1.263       .  A
O3317     Al3325   1.911       .  S
O3318      C3327   1.259       .  A
O3318     Al3325   1.898       .  S
O3319     Al3325   1.895       .  S
O3320      C3327   1.265       .  A
O3321     Al3325   1.774       .  S
O3322      C3323   1.263       .  A
C3323      C3553   1.479       .  S
C3324      C3753   1.474       .  S
C3327      C3583   1.479       .  S
C3328      O3329   1.263       .  A
C3328      C3520   1.498       .  S
C3330      C3490   1.487       .  S
C3330      C3335   1.408       .  A
C3331      C3332   1.395       .  A
C3331      H3336   1.083       .  S
C3332      C3503   1.477       .  S
C3333      C3334   1.405       .  A
C3333      H3337   1.081       .  S
C3334      C3341   1.493       .  S
C3334      C3335   1.409       .  A
C3335      H3338   1.082       .  S
C3339      C3573   1.480       .  S
C3339      C3340   1.398       .  A
C3339      C3344   1.400       .  A
C3340      C3341   1.405       .  A
C3340      H3345   1.081       .  S
C3341      C3342   1.405       .  A
C3342      C3343   1.407       .  A
C3342      H3346   1.082       .  S
C3343      C3480   1.487       .  S
C3343      C3344   1.403       .  A
C3344      H3347   1.083       .  S
C3348      C3533   1.480       .  S
C3348      C3349   1.399       .  A
C3349      H3354   1.084       .  S
C3350      C3470   1.491       .  S
C3350      C3351   1.405       .  A
C3351      C3352   1.419       .  A
C3351      H3355   1.080       .  S
C3352      C3361   1.510       .  S
C3352      C3353   1.414       .  A
C3353      H3356   1.080       .  S
C3357      C3362   1.406       .  A
C3358      H3363   1.083   1_455  S
C3359      C3460   1.497       .  S
C3359      C3360   1.407       .  A
C3360      C3361   1.410       .  A
C3360      H3364   1.080       .  S
C3361      C3362   1.414       .  A
C3362      H3365   1.080       .  S
C3366      C3543   1.489       .  S
C3366      C3367   1.398       .  A
C3366      C3371   1.397       .  A
C3367      C3368   1.405       .  A
C3367      H3372   1.081       .  S
C3368      C3379   1.499       .  S
C3368      C3369   1.410       .  A
C3369      C3370   1.414       .  A
C3369      H3373   1.074       .  S
C3370      C3450   1.518       .  S
C3370      C3371   1.415       .  A
C3371      H3374   1.077       .  S
C3375      C3440   1.483       .  S
C3375      C3380   1.401       .  A
C3376      C3377   1.409       .  A
C3376      H3381   1.082   1_455  S
C3377      C3513   1.502   1_455  S
C3378      C3379   1.409       .  A
C3378      H3382   1.082       .  S
C3379      C3380   1.406       .  A
C3380      H3383   1.080       .  S
C3384      C3430   1.578       .  S
C3384      C3453   1.600       .  S
C3384      C3483   1.621       .  S
C3384      C4003   1.617       .  S
C3385      C3473   1.609       .  S
C3385      C3493   1.599       .  S
C3385      C3983   1.604       .  S
C3386      C3443   1.611       .  S
C3386      C3463   1.623       .  S
C3386      C3993   1.581       .  S
O3387      C3402   1.265       .  A
O3387     Al3395   1.907       .  S
C3388      O3398   1.257   1_554  A
C3388      O3389   1.269   1_554  A
C3388      C4050   1.500       .  S
O3389     Al3391   1.937       .  S
O3390      C3392   1.262       .  A
O3390     Al3391   1.916       .  S
Al3391     O3399   1.921       .  S
Al3391     O3401   1.935       .  S
Al3391     O3400   1.780       .  S
C3392      O3405   1.254       .  A
C3392      C4013   1.494   1_556  S
O3393      C3403   1.262       .  A
O3393     Al3395   1.900       .  S
O3394      C3407   1.259       .  A
O3394     Al3404   1.904       .  S
Al3395     O3408   1.901       .  S
Al3395     O3405   1.899       .  S
Al3395     O3400   1.785       .  S
O3396      C3403   1.264       .  A
O3396     Al3404   1.917       .  S
O3397      C3406   1.262       .  A
O3397     Al3404   1.920       .  S
O3398     Al3404   1.898       .  S
O3399      C3406   1.263       .  A
O3400     Al3404   1.791       .  S
O3401      C3402   1.268       .  A
C3402      C3423   1.490       .  S
C3403      C4093   1.486   1_556  S
C3406      C3410   1.488       .  S
C3407      O3408   1.260       .  A
C3407      C3433   1.480       .  S
C3409      C3410   1.410       .  A
C3409      C3414   1.430       .  A
C3409     Br3416   1.926       .  S
C3410      C3411   1.393       .  A
C3411      C3412   1.398       .  A
C3411     Br3418   1.934       .  S
C3412      C3413   1.446       .  A
C3412     Br3417   1.937   1_655  S
C3413      C3414   1.440       .  A
C3414     Br3415   1.940       .  S
C3419      C3420   1.450       .  A
C3419      C3424   1.414       .  A
C3419     Br3426   1.934       .  S
C3420      C3421   1.462       .  A
C3421      C3422   1.421       .  A
C3421     Br3428   1.950       .  S
C3422      C3423   1.398       .  A
C3422     Br3427   1.939       .  S
C3423      C3424   1.400       .  A
C3424     Br3425   1.940       .  S
C3429      C3430   1.445       .  A
C3429      C3434   1.412       .  A
C3429     Br3436   1.940       .  S
C3430      C3431   1.443       .  A
C3431      C3432   1.407       .  A
C3431     Br3438   1.942       .  S
C3432      C3433   1.402       .  A
C3432     Br3437   1.940       .  S
C3433      C3434   1.404       .  A
C3434     Br3435   1.939       .  S
C3439      C3440   1.390       .  A
C3439      C3444   1.403       .  A
C3439     Br3446   1.938       .  S
C3441      C3442   1.420       .  A
C3441     Br3448   1.939   1_455  S
C3442     Br3447   1.944   1_455  S
C3443      C3444   1.450       .  A
C3444     Br3445   1.940       .  S
C3449      C3450   1.419       .  A
C3449      C3454   1.410       .  A
C3449     Br3456   1.936       .  S
C3450      C3451   1.410       .  A
C3451      C3452   1.412       .  A
C3451     Br3458   1.942       .  S
C3452      C3453   1.439       .  A
C3452     Br3457   1.910       .  S
C3453      C3454   1.440       .  A
C3454     Br3455   1.939       .  S
C3459      C3464   1.429       .  A
C3459     Br3466   1.935       .  S
C3460      C3461   1.401       .  A
C3461      C3462   1.395       .  A
C3461     Br3468   1.938       .  S
C3462      C3463   1.425       .  A
C3462     Br3467   1.933       .  S
C3464     Br3465   1.940       .  S
C3469      C3470   1.401       .  A
C3469      C3474   1.414   1_565  A
C3469     Br3476   1.937   1_565  S
C3470      C3471   1.396       .  A
C3471      C3472   1.410       .  A
C3471     Br3478   1.940       .  S
C3472      C3473   1.458       .  A
C3472     Br3477   1.940       .  S
C3473      C3474   1.454   1_565  A
C3474     Br3475   1.945       .  S
C3479      C3480   1.409       .  A
C3479      C3484   1.429       .  A
C3479     Br3486   1.943       .  S
C3480      C3481   1.399       .  A
C3481      C3482   1.389       .  A
C3481     Br3488   1.931       .  S
C3482      C3483   1.412       .  A
C3482     Br3487   1.932       .  S
C3483      C3484   1.468       .  A
C3484     Br3485   1.948       .  S
C3489      C3494   1.402       .  A
C3489     Br3496   1.939       .  S
C3490      C3491   1.403       .  A
C3491      C3492   1.411       .  A
C3491     Br3498   1.942       .  S
C3492      C3493   1.457       .  A
C3492     Br3497   1.940       .  S
C3494     Br3495   1.933       .  S
C3499      C3500   1.460       .  A
C3499      C3504   1.405       .  A
C3499     Br3506   1.955       .  S
C3500      C3501   1.443       .  A
C3501      C3502   1.413       .  A
C3501     Br3508   1.925       .  S
C3502      C3503   1.403       .  A
C3502     Br3507   1.943       .  S
C3503      C3504   1.393       .  A
C3504     Br3505   1.945       .  S
C3509      C3510   1.454       .  A
C3509      C3514   1.424   1_655  A
C3510      C3511   1.452       .  A
C3511      C3512   1.402       .  A
C3511     Br3518   1.926       .  S
C3512      C3513   1.403       .  A
C3512     Br3517   1.944       .  S
C3513      C3514   1.411   1_655  A
C3519      C3520   1.405       .  A
C3519      C3524   1.414       .  A
C3519     Br3526   1.948       .  S
C3520      C3521   1.406       .  A
C3521      C3522   1.425       .  A
C3521     Br3528   1.942       .  S
C3522      C3523   1.459       .  A
C3522     Br3527   1.944       .  S
C3523      C3524   1.451       .  A
C3524     Br3525   1.933       .  S
C3529      C3530   1.446       .  A
C3529      C3534   1.417       .  A
C3529     Br3536   1.914       .  S
C3530      C3531   1.450       .  A
C3531      C3532   1.405       .  A
C3531     Br3538   1.942       .  S
C3532      C3533   1.395       .  A
C3532     Br3537   1.935       .  S
C3533      C3534   1.399       .  A
C3539      C3540   1.446       .  A
C3539      C3544   1.385       .  A
C3539     Br3546   1.937       .  S
C3540      C3541   1.452       .  A
C3541      C3542   1.431       .  A
C3541     Br3548   1.929       .  S
C3542      C3543   1.409       .  A
C3542     Br3547   1.934       .  S
C3543      C3544   1.397       .  A
C3544     Br3545   1.939       .  S
C3549      C3550   1.446       .  A
C3549      C3554   1.393       .  A
C3549     Br3556   1.951       .  S
C3550      C3551   1.451       .  A
C3551      C3552   1.425       .  A
C3551     Br3558   1.923       .  S
C3552      C3553   1.402       .  A
C3552     Br3557   1.934       .  S
C3553      C3554   1.397       .  A
C3554     Br3555   1.935       .  S
C3559      C3560   1.456       .  A
C3559      C3564   1.398       .  A
C3559     Br3566   1.950       .  S
C3560      C3561   1.453       .  A
C3561      C3562   1.426       .  A
C3561     Br3568   1.933       .  S
C3562      C3563   1.400       .  A
C3563      C3564   1.391       .  A
C3564     Br3565   1.942       .  S
C3569      C3570   1.450       .  A
C3569      C3574   1.413       .  A
C3569     Br3576   1.949       .  S
C3570      C3571   1.445       .  A
C3571      C3572   1.406       .  A
C3571     Br3578   1.942       .  S
C3572      C3573   1.406       .  A
C3572     Br3577   1.946       .  S
C3573      C3574   1.399       .  A
C3574     Br3575   1.937       .  S
C3579      C3580   1.451       .  A
C3579      C3584   1.405       .  A
C3579     Br3586   1.924       .  S
C3580      C3581   1.455       .  A
C3581      C3582   1.419       .  A
C3581     Br3588   1.911       .  S
C3582      C3583   1.391       .  A
C3582     Br3587   1.937       .  S
C3583      C3584   1.394       .  A
C3584     Br3585   1.938       .  S
C3589      C3590   1.452       .  A
C3589      C3594   1.418       .  A
C3589     Br3596   1.929       .  S
C3590      C3591   1.461       .  A
C3591      C3592   1.416       .  A
C3591     Br3598   1.953       .  S
C3592      C3593   1.398       .  A
C3592     Br3597   1.942       .  S
C3593      C3594   1.401       .  A
C3594     Br3595   1.945   1_565  S
C3599      C3600   1.434       .  A
C3599      C3604   1.411       .  A
C3599     Br3606   1.936       .  S
C3600      C3601   1.466       .  A
C3601      C3602   1.428       .  A
C3601     Br3608   1.958       .  S
C3602      C3603   1.412       .  A
C3603      C3604   1.406       .  A
C3604     Br3605   1.930       .  S
C3609      C3610   1.460       .  A
C3609      C3614   1.423       .  A
C3609     Br3616   1.947       .  S
C3610      C3611   1.453       .  A
C3611      C3612   1.418       .  A
C3611     Br3618   1.929       .  S
C3612      C3613   1.400       .  A
C3612     Br3617   1.941       .  S
C3613      C3614   1.400       .  A
C3619      C3620   1.397       .  A
C3619      C3624   1.400       .  A
C3619     Br3626   1.947       .  S
C3620      C3621   1.403       .  A
C3621      C3622   1.417       .  A
C3621     Br3628   1.934       .  S
C3622      C3623   1.446       .  A
C3622     Br3627   1.949       .  S
C3623      C3624   1.460       .  A
C3624     Br3625   1.965       .  S
C3629      C3630   1.415       .  A
C3629      C3634   1.415       .  A
C3629     Br3636   1.933       .  S
C3630      C3631   1.408       .  A
C3631      C3632   1.414       .  A
C3631     Br3638   1.948       .  S
C3632      C3633   1.450       .  A
C3632     Br3637   1.931       .  S
C3633      C3634   1.448       .  A
C3634     Br3635   1.937       .  S
C3639      C3640   1.399       .  A
C3639      C3644   1.419       .  A
C3640      C3641   1.395       .  A
C3641      C3642   1.408       .  A
C3641     Br3648   1.942       .  S
C3642      C3643   1.458       .  A
C3642     Br3647   1.944       .  S
C3643      C3644   1.458       .  A
C3644     Br3645   1.943       .  S
C3649      C3650   1.405       .  A
C3649      C3654   1.405       .  A
C3649     Br3656   1.941       .  S
C3650      C3651   1.407       .  A
C3651      C3652   1.406       .  A
C3651     Br3658   1.938       .  S
C3652      C3653   1.449       .  A
C3652     Br3657   1.938       .  S
C3653      C3654   1.445       .  A
C3654     Br3655   1.936       .  S
C3659      C3660   1.392       .  A
C3659      C3664   1.398       .  A
C3659     Br3666   1.945       .  S
C3661     Br3668   1.939       .  S
C3662      C3663   1.461       .  A
C3662     Br3667   1.940       .  S
C3663      C3664   1.455       .  A
C3664     Br3665   1.939       .  S
C3669      C3670   1.460       .  A
C3669      C3674   1.417       .  A
C3669     Br3676   1.932       .  S
C3670      C3671   1.447       .  A
C3671      C3672   1.406       .  A
C3671     Br3678   1.934       .  S
C3672      C3673   1.404       .  A
C3672     Br3677   1.933       .  S
C3673      C3674   1.403       .  A
C3674     Br3675   1.941       .  S
C3679      C3680   1.401       .  A
C3679      C3684   1.411       .  A
C3680      C3681   1.396       .  A
C3681      C3682   1.407       .  A
C3681     Br3688   1.943       .  S
C3682      C3683   1.452       .  A
C3682     Br3687   1.937       .  S
C3683      C3684   1.444       .  A
C3684     Br3685   1.948       .  S
C3689      C3690   1.388       .  A
C3689      C3694   1.412       .  A
C3689     Br3696   1.939       .  S
C3690      C3691   1.391       .  A
C3691      C3692   1.420       .  A
C3691     Br3698   1.944       .  S
C3692      C3693   1.471       .  A
C3692     Br3697   1.953       .  S
C3693      C3694   1.454       .  A
C3694     Br3695   1.923       .  S
C3699      C3700   1.415       .  A
C3699      C3704   1.427       .  A
C3699     Br3706   1.949       .  S
C3700      C3701   1.411       .  A
C3701      C3702   1.410       .  A
C3702      C3703   1.437       .  A
C3702     Br3707   1.935       .  S
C3703      C3704   1.464       .  A
C3704     Br3705   1.943       .  S
C3709      C3710   1.430       .  A
C3709      C3714   1.401       .  A
C3709     Br3716   1.945       .  S
C3710      C3711   1.454       .  A
C3711      C3712   1.426       .  A
C3711     Br3718   1.946       .  S
C3712      C3713   1.416       .  A
C3712     Br3717   1.943       .  S
C3713      C3714   1.411       .  A
C3714     Br3715   1.940       .  S
C3719      C3720   1.444       .  A
C3719      C3724   1.388       .  A
C3719     Br3726   1.943       .  S
C3720      C3721   1.437       .  A
C3721      C3722   1.423       .  A
C3721     Br3728   1.941       .  S
C3722      C3723   1.411       .  A
C3722     Br3727   1.928       .  S
C3723      C3724   1.390       .  A
C3724     Br3725   1.939       .  S
C3729      C3730   1.392       .  A
C3729      C3734   1.401       .  A
C3729     Br3736   1.943       .  S
C3730      C3731   1.397       .  A
C3731      C3732   1.408       .  A
C3732      C3733   1.449       .  A
C3732     Br3737   1.943       .  S
C3733      C3734   1.451       .  A
C3734     Br3735   1.926       .  S
C3739      C3740   1.397       .  A
C3739      C3744   1.421       .  A
C3739     Br3746   1.940       .  S
C3740      C3741   1.398       .  A
C3741      C3742   1.413       .  A
C3742      C3743   1.446       .  A
C3742     Br3747   1.929       .  S
C3743      C3744   1.459       .  A
C3744     Br3745   1.940       .  S
C3749      C3750   1.445       .  A
C3749      C3754   1.415       .  A
C3749     Br3756   1.917       .  S
C3750      C3751   1.442       .  A
C3751      C3752   1.401       .  A
C3751     Br3758   1.940       .  S
C3752      C3753   1.393       .  A
C3752     Br3757   1.927       .  S
C3753      C3754   1.398       .  A
C3754     Br3755   1.936       .  S
C3759      C3760   1.446       .  A
C3759      C3764   1.404       .  A
C3759     Br3766   1.933       .  S
C3760      C3761   1.457       .  A
C3761      C3762   1.416       .  A
C3761     Br3768   1.942       .  S
C3762      C3763   1.400       .  A
C3763      C3764   1.389       .  A
C3764     Br3765   1.935       .  S
C3769      C3770   1.426       .  A
C3769      C3774   1.396       .  A
C3769     Br3776   1.936       .  S
C3770      C3771   1.452       .  A
C3771      C3772   1.430       .  A
C3771     Br3778   1.940       .  S
C3772      C3773   1.410       .  A
C3773      C3774   1.400       .  A
C3774     Br3775   1.933       .  S
C3779      C3780   1.446       .  A
C3779      C3784   1.424       .  A
C3779     Br3786   1.943       .  S
C3780      C3781   1.457       .  A
C3781      C3782   1.415       .  A
C3781     Br3788   1.950       .  S
C3782      C3783   1.399       .  A
C3782     Br3787   1.941       .  S
C3783      C3784   1.401       .  A
C3784     Br3785   1.924       .  S
C3789      C3790   1.450       .  A
C3789      C3794   1.419       .  A
C3789     Br3796   1.942       .  S
C3790      C3791   1.462       .  A
C3791      C3792   1.413       .  A
C3791     Br3798   1.955       .  S
C3792      C3793   1.401       .  A
C3792     Br3797   1.952       .  S
C3793      C3794   1.412       .  A
C3794     Br3795   1.947       .  S
C3799      C3800   1.448       .  A
C3799      C3804   1.392       .  A
C3799     Br3806   1.931       .  S
C3800      C3801   1.459       .  A
C3801      C3802   1.415       .  A
C3801     Br3808   1.941       .  S
C3802      C3803   1.401       .  A
C3802     Br3807   1.936       .  S
C3803      C3804   1.393       .  A
C3804     Br3805   1.930       .  S
C3809      C3810   1.459       .  A
C3809      C3814   1.415       .  A
C3809     Br3816   1.948       .  S
C3810      C3811   1.451       .  A
C3811      C3812   1.404       .  A
C3811     Br3818   1.937       .  S
C3812      C3813   1.397       .  A
C3812     Br3817   1.942       .  S
C3813      C3814   1.398       .  A
C3819      C3820   1.445       .  A
C3819      C3824   1.405       .  A
C3819     Br3826   1.934       .  S
C3820      C3821   1.457       .  A
C3821      C3822   1.417       .  A
C3821     Br3828   1.948       .  S
C3822      C3823   1.406       .  A
C3822     Br3827   1.935       .  S
C3823      C3824   1.408       .  A
C3829      C3830   1.402       .  A
C3829      C3834   1.420       .  A
C3829     Br3836   1.941       .  S
C3830      C3831   1.394       .  A
C3831      C3832   1.405       .  A
C3831     Br3838   1.938       .  S
C3832      C3833   1.456       .  A
C3832     Br3837   1.956       .  S
C3833      C3834   1.452       .  A
C3834     Br3835   1.937       .  S
C3839      C3840   1.462       .  A
C3839      C3844   1.404       .  A
C3839     Br3846   1.936       .  S
C3840      C3841   1.448       .  A
C3841      C3842   1.420       .  A
C3841     Br3848   1.914       .  S
C3842      C3843   1.396       .  A
C3842     Br3847   1.940       .  S
C3843      C3844   1.386       .  A
C3844     Br3845   1.942       .  S
C3849      C3850   1.394       .  A
C3849      C3854   1.413       .  A
C3849     Br3856   1.936       .  S
C3850      C3851   1.395       .  A
C3851      C3852   1.411       .  A
C3851     Br3858   1.934       .  S
C3852      C3853   1.457       .  A
C3852     Br3857   1.957       .  S
C3853      C3854   1.453       .  A
C3854     Br3855   1.927       .  S
C3859      C3860   1.456       .  A
C3859      C3864   1.425       .  A
C3859     Br3866   1.937       .  S
C3860      C3861   1.454       .  A
C3861      C3862   1.415       .  A
C3861     Br3868   1.928       .  S
C3862      C3863   1.399       .  A
C3863      C3864   1.409       .  A
C3869      C3870   1.394       .  A
C3869      C3874   1.410       .  A
C3869     Br3876   1.939       .  S
C3870      C3871   1.391       .  A
C3871      C3872   1.419       .  A
C3871     Br3878   1.938       .  S
C3872      C3873   1.451       .  A
C3872     Br3877   1.920       .  S
C3873      C3874   1.464       .  A
C3874     Br3875   1.960       .  S
C3879      C3880   1.396       .  A
C3879      C3884   1.396       .  A
C3879     Br3886   1.928       .  S
C3880      C3881   1.435       .  A
C3881      C3882   1.430       .  A
C3881     Br3888   1.925       .  S
C3882      C3883   1.430       .  A
C3882     Br3887   1.941       .  S
C3883      C3884   1.416       .  A
C3889      C3890   1.402       .  A
C3889      C3894   1.427       .  A
C3890      C3891   1.390       .  A
C3891      C3892   1.389       .  A
C3891     Br3898   1.935       .  S
C3892      C3893   1.430       .  A
C3892     Br3897   1.911       .  S
C3893      C3894   1.451       .  A
C3894     Br3895   1.927       .  S
C3899      C3900   1.425       .  A
C3899      C3904   1.404       .  A
C3899     Br3906   1.937       .  S
C3900      C3901   1.438       .  A
C3901      C3902   1.419       .  A
C3901     Br3908   1.942       .  S
C3902      C3903   1.415       .  A
C3902     Br3907   1.941       .  S
C3903      C3904   1.410       .  A
C3904     Br3905   1.935       .  S
C3909      C3910   1.457       .  A
C3909      C3914   1.424       .  A
C3909     Br3916   1.941       .  S
C3910      C3911   1.452       .  A
C3911      C3912   1.409       .  A
C3911     Br3918   1.949       .  S
C3912      C3913   1.395       .  A
C3912     Br3917   1.933       .  S
C3913      C3914   1.399       .  A
C3914     Br3915   1.938   1_565  S
C3919      C3920   1.392       .  A
C3919      C3924   1.403       .  A
C3919     Br3926   1.940       .  S
C3921     Br3928   1.942       .  S
C3922      C3923   1.443       .  A
C3923      C3924   1.444       .  A
C3924     Br3925   1.922       .  S
C3929      C3930   1.412       .  A
C3929      C3934   1.419       .  A
C3929     Br3936   1.943       .  S
C3930      C3931   1.417       .  A
C3931      C3932   1.407       .  A
C3931     Br3938   1.942       .  S
C3932      C3933   1.440       .  A
C3932     Br3937   1.946       .  S
C3933      C3934   1.450       .  A
C3934     Br3935   1.942       .  S
C3939      C3940   1.409       .  A
C3939      C3944   1.391       .  A
C3939     Br3946   1.927       .  S
C3940      C3941   1.411       .  A
C3941      C3942   1.423       .  A
C3941     Br3948   1.935       .  S
C3942      C3943   1.460       .  A
C3942     Br3947   1.948       .  S
C3943      C3944   1.415       .  A
C3944     Br3945   1.923       .  S
C3949      C3950   1.400       .  A
C3949      C3954   1.419       .  A
C3950      C3951   1.384       .  A
C3951      C3952   1.391       .  A
C3951     Br3958   1.940       .  S
C3952      C3953   1.455       .  A
C3952     Br3957   1.948       .  S
C3953      C3954   1.450       .  A
C3954     Br3955   1.927       .  S
C3959      C3960   1.456       .  A
C3959      C3964   1.424       .  A
C3959     Br3966   1.937       .  S
C3960      C3961   1.460       .  A
C3961      C3962   1.405       .  A
C3961     Br3968   1.938       .  S
C3962      C3963   1.397   1_565  A
C3962     Br3967   1.958   1_565  S
C3963      C3964   1.401   1_545  A
C3969      C3970   1.447       .  A
C3969      C3974   1.403       .  A
C3969     Br3976   1.945       .  S
C3970      C3971   1.444       .  A
C3971      C3972   1.406       .  A
C3971     Br3978   1.918       .  S
C3972      C3973   1.402       .  A
C3972     Br3977   1.937       .  S
C3973      C3974   1.404       .  A
C3974     Br3975   1.936       .  S
C3979      C3980   1.397       .  A
C3979      C3984   1.405       .  A
C3979     Br3986   1.932       .  S
C3980      C3981   1.396       .  A
C3981      C3982   1.416       .  A
C3981     Br3988   1.939       .  S
C3982      C3983   1.455       .  A
C3982     Br3987   1.934   1_565  S
C3983      C3984   1.455       .  A
C3984     Br3985   1.956       .  S
C3989      C3990   1.405       .  A
C3989      C3994   1.404       .  A
C3989     Br3996   1.937       .  S
C3990      C3991   1.399       .  A
C3991      C3992   1.407       .  A
C3991     Br3998   1.944       .  S
C3992      C3993   1.442       .  A
C3992     Br3997   1.926       .  S
C3993      C3994   1.443       .  A
C3994     Br3995   1.952       .  S
C3999      C4000   1.393       .  A
C3999      C4004   1.415       .  A
C3999     Br4006   1.934       .  S
C4000      C4001   1.389       .  A
C4001      C4002   1.401       .  A
C4001     Br4008   1.928       .  S
C4002      C4003   1.449       .  A
C4002     Br4007   1.941       .  S
C4003      C4004   1.457       .  A
C4004     Br4005   1.942       .  S
C4009      C4010   1.454       .  A
C4009      C4014   1.418       .  A
C4009     Br4016   1.936       .  S
C4010      C4011   1.465       .  A
C4011      C4012   1.419       .  A
C4011     Br4018   1.959       .  S
C4012      C4013   1.403       .  A
C4012     Br4017   1.951       .  S
C4013      C4014   1.397       .  A
C4014     Br4015   1.944   1_554  S
C4019      C4020   1.456       .  A
C4019      C4024   1.403       .  A
C4020      C4021   1.451       .  A
C4021      C4022   1.408       .  A
C4021     Br4028   1.938       .  S
C4022      C4023   1.405       .  A
C4022     Br4027   1.939       .  S
C4023      C4024   1.396       .  A
C4029      C4030   1.452       .  A
C4029      C4034   1.400       .  A
C4029     Br4036   1.937       .  S
C4030      C4031   1.461       .  A
C4031      C4032   1.417       .  A
C4031     Br4038   1.948       .  S
C4032      C4033   1.396       .  A
C4032     Br4037   1.939       .  S
C4033      C4034   1.393       .  A
C4034     Br4035   1.945       .  S
C4039      C4040   1.400       .  A
C4039      C4044   1.419       .  A
C4039     Br4046   1.938       .  S
C4040      C4041   1.399       .  A
C4041      C4042   1.411       .  A
C4041     Br4048   1.945       .  S
C4042      C4043   1.451       .  A
C4042     Br4047   1.935   1_565  S
C4043      C4044   1.463       .  A
C4044     Br4045   1.955       .  S
C4049      C4050   1.404       .  A
C4049      C4054   1.425       .  A
C4049     Br4056   1.943       .  S
C4050      C4051   1.391       .  A
C4051      C4052   1.410       .  A
C4051     Br4058   1.935       .  S
C4052      C4053   1.470       .  A
C4052     Br4057   1.962       .  S
C4053      C4054   1.449       .  A
C4054     Br4055   1.920       .  S
C4059      C4064   1.419       .  A
C4059     Br4066   1.934       .  S
C4060      C4061   1.460       .  A
C4061      C4062   1.404       .  A
C4061     Br4068   1.955   1_655  S
C4062      C4063   1.395       .  A
C4062     Br4067   1.942       .  S
C4064     Br4065   1.928       .  S
C4069      C4074   1.415       .  A
C4069     Br4076   1.936       .  S
C4070      C4071   1.459       .  A
C4071      C4072   1.405       .  A
C4071     Br4078   1.962       .  S
C4072      C4073   1.401       .  A
C4072     Br4077   1.943       .  S
C4074     Br4075   1.940       .  S
C4079      C4080   1.450       .  A
C4079      C4084   1.419       .  A
C4079     Br4086   1.915       .  S
C4080      C4081   1.452       .  A
C4081      C4082   1.409       .  A
C4081     Br4088   1.931       .  S
C4082      C4083   1.393       .  A
C4082     Br4087   1.935   1_554  S
C4083      C4084   1.392       .  A
C4084     Br4085   1.940       .  S
C4089      C4090   1.449       .  A
C4089      C4094   1.410       .  A
C4089     Br4096   1.928       .  S
C4090      C4091   1.451       .  A
C4091      C4092   1.403       .  A
C4091     Br4098   1.948       .  S
C4092      C4093   1.397       .  A
C4092     Br4097   1.928       .  S
C4093      C4094   1.400       .  A
C4094     Br4095   1.929   1_554  S
C4099      C4100   1.450       .  A
C4099      C4104   1.408       .  A
C4099     Br4106   1.931       .  S
C4100      C4101   1.444       .  A
C4101      C4102   1.407       .  A
C4101     Br4108   1.938       .  S
C4102      C4103   1.411       .  A
C4102     Br4107   1.942       .  S
C4103      C4104   1.403       .  A
C4104     Br4105   1.940       .  S
C4109      C4110   1.454       .  A
C4109      C4114   1.407       .  A
C4109     Br4116   1.943       .  S
C4110      C4111   1.455       .  A
C4111      C4112   1.403       .  A
C4111     Br4118   1.931       .  S
C4112      C4113   1.388       .  A
C4112     Br4117   1.940       .  S
C4113      C4114   1.396       .  A
C4114     Br4115   1.935       .  S
C4119      C4120   1.447       .  A
C4119      C4124   1.417       .  A
C4119     Br4126   1.938       .  S
C4120      C4121   1.448       .  A
C4121      C4122   1.392       .  A
C4121     Br4128   1.946       .  S
C4122      C4123   1.386       .  A
C4122     Br4127   1.917       .  S
C4123      C4124   1.419       .  A
C4124     Br4125   1.950       .  S
