geometry optimzed in LAMMPS
_audit_creation_date              2020-11-30 
_audit_creation_method            'lammps2cif' 
_symmetry_space_group_name_H-M    'P1' 
_symmetry_Int_Tables_number       1 
_symmetry_cell_setting            triclinic 
loop_ 
_symmetry_equiv_pos_as_xyz 
  x,y,z 
_cell_length_a                    33.64146106 
_cell_length_b                    33.68223485824835 
_cell_length_c                    34.622013529516494 
_cell_angle_alpha                 90.53895371758578 
_cell_angle_beta                  89.41089030736421 
_cell_angle_gamma                 119.20221062198527 
loop_ 
_atom_site_label 
_atom_site_type_symbol 
_atom_site_fract_x 
_atom_site_fract_y 
_atom_site_fract_z 
_atom_site_charge 
N1          N  0.44506429  0.40046871  0.51154760    -0.26600
N2          N  0.48510138  0.40186720  0.51047152    -0.34400
C3          C  0.47856681  0.35909132  0.51057038     0.01800
C4          C  0.43231353  0.32984792  0.01229499     0.07800
C5          C  0.41187406  0.35675129  0.51253791    -0.05300
H6          H  0.50530780  0.35011002  0.50855823     0.08400
H7          H  0.37576586  0.34547975  0.51215144     0.09600
Cu8        Cu  0.04669120  0.46177627  0.50669645     0.44200
Cu9        Cu  0.43703719  0.45782559  0.50855165     0.42000
Cu10       Cu  0.03920633  0.06348006  0.98663933     0.43900
N11         N  0.10307095  0.02564168  0.49978234    -0.34000
N12         N  0.10050812  0.06245980  0.99074066    -0.28200
C13         C  0.14299600  0.09793011  0.98740254    -0.04300
C14         C  0.17317407  0.08234600  0.99504656     0.07900
C15         C  0.14712703  0.03669326  0.50311184     0.01700
H16         H  0.15114948  0.13249829  0.98114200     0.09300
H17         H  0.15913408  0.01331383  0.51075437     0.08400
N18         N  0.47460442  0.05746163  0.49092160    -0.35400
N19         N  0.43762357  0.01927476  0.00073724    -0.27600
C20         C  0.40215021  0.02722389  0.00391557    -0.02800
C21         C  0.41766142  0.07225795  0.99495326     0.05800
C22         C  0.46354815  0.09064369  0.48690029     0.03900
H23         H  0.36782666  0.00214403  0.51195773     0.09000
H24         H  0.48733109  0.12565723  0.97988379     0.07800
N25         N  0.43771219  0.40278544  0.24426647    -0.26600
N26         N  0.47528758  0.40024760  0.23771485    -0.34400
C27         C  0.46446833  0.35611127  0.23548035     0.01800
C28         C  0.41801887  0.33016434  0.24089412     0.07800
C29         C  0.40200339  0.36043074  0.24672582    -0.05900
H30         H  0.48867561  0.34398175  0.23156603     0.08400
H31         H  0.36727756  0.35239407  0.25281166     0.09600
Cu32       Cu  0.04002975  0.45706371  0.23621360     0.44200
Cu33       Cu  0.43641169  0.46364528  0.25050167     0.42000
Cu34       Cu  0.04404683  0.06435668  0.26358084     0.43900
N35         N  0.10003590  0.01771323  0.24608219    -0.34000
N36         N  0.10118553  0.05569319  0.25827912    -0.28200
C37         C  0.14480673  0.08760964  0.26421083    -0.04300
C38         C  0.17204415  0.06875596  0.25497447     0.07900
C39         C  0.14299542  0.02472306  0.24317068     0.01700
H40         H  0.15586197  0.12224748  0.27326994     0.09300
H41         H  0.15221800  0.99963943  0.23354344     0.08400
N42         N  0.48264761  0.06541202  0.26118667    -0.35400
N43         N  0.44311133  0.02825330  0.25528216    -0.27600
C44         C  0.41017030  0.03983495  0.25236789    -0.02800
C45         C  0.43009807  0.08635176  0.25715002     0.05800
C46         C  0.47593611  0.10175275  0.26268195     0.03900
H47         H  0.37461831  0.01626665  0.24698417     0.09000
H48         H  0.50248742  0.13664074  0.26637312     0.07800
C49         C  0.33838317  0.16073197  0.04047251     0.30700
C50         C  0.34174414  0.16734941  0.46130392     0.30700
C51         C  0.35725907  0.13301266  0.01899565    -0.05500
C52         C  0.29224654  0.14343652  0.02005352    -0.06300
C53         C  0.36702938  0.20871003  0.02373202    -0.06100
C54         C  0.36066261  0.13782977  0.47890161    -0.05500
C55         C  0.29431812  0.14766808  0.47998414    -0.06300
C56         C  0.36962841  0.21226129  0.48359916    -0.06200
C57         C  0.38440377  0.11635556  0.46588886    -0.31500
N58         N  0.39208877  0.09599009  0.99627133     0.15000
C59         C  0.37493272  0.10503844  0.02867093    -0.31500
H60         H  0.37725978  0.09383283  0.05733620     0.16900
C61         C  0.25025886  0.12680069  0.46651433    -0.30500
N62         N  0.22167021  0.10893214  0.99709042     0.13700
C63         C  0.24666202  0.11758323  0.02966160    -0.30500
C64         C  0.39748591  0.25772490  0.47529030    -0.30800
N65         N  0.40967179  0.28141509  0.00898792     0.14200
H66         H  0.40720812  0.27290593  0.44696669     0.16800
C67         C  0.39139124  0.25200344  0.03875817    -0.30800
H68         H  0.39467697  0.26156780  0.06898051     0.16800
H69         H  0.23247553  0.10442267  0.05787306     0.16800
H70         H  0.39609180  0.11612657  0.43669801     0.16900
H71         H  0.23980410  0.12267015  0.43661242     0.16800
C72         C  0.33912008  0.16667813  0.29063591     0.30700
C73         C  0.33769007  0.16069520  0.21140112     0.30700
C74         C  0.36960423  0.14890574  0.27220595    -0.05500
C75         C  0.29244463  0.13621399  0.27214515    -0.06300
C76         C  0.35602567  0.21199813  0.26887753    -0.06100
C77         C  0.36766360  0.14434191  0.23202923    -0.05500
C78         C  0.29171840  0.13200037  0.23212809    -0.06300
C79         C  0.35487824  0.20852077  0.22863923    -0.06200
C80         C  0.38984621  0.12014077  0.22234335    -0.31500
N81         N  0.40791728  0.11332482  0.25477151     0.15000
C82         C  0.39638232  0.13116259  0.28528712    -0.31500
H83         H  0.40448183  0.12866641  0.31502416     0.16900
C84         C  0.24702911  0.10293581  0.22193328    -0.30500
N85         N  0.22079912  0.09192302  0.25429882     0.13700
C86         C  0.24803815  0.11213287  0.28510775    -0.30500
C87         C  0.37741648  0.25201635  0.21396972    -0.30800
N88         N  0.39220454  0.28171389  0.24396637     0.14200
H89         H  0.38431418  0.26134780  0.18382484     0.16800
C90         C  0.38049819  0.25801340  0.27745927    -0.30800
H91         H  0.39171511  0.27347224  0.30559549     0.16800
H92         H  0.23625787  0.11026422  0.31459903     0.16800
H93         H  0.39119666  0.10658619  0.19421201     0.16900
H94         H  0.23404438  0.09245122  0.19300429     0.16800
C95         C  0.33972571  0.16816390  0.41709416     0.00500
C96         C  0.33143531  0.12881445  0.39628636    -0.11300
C97         C  0.32873777  0.12695416  0.35603580     0.02800
C98         C  0.33676454  0.16604788  0.33492807     0.00500
C99         C  0.33568804  0.20152265  0.35589383    -0.11300
C100        C  0.33522374  0.20188752  0.39645819     0.02700
H101        H  0.32439057  0.09812920  0.41149727     0.15600
H102        H  0.33138656  0.22714605  0.34095690     0.15600
C103        C  0.32404038  0.23348932  0.41555284     0.37300
C104        C  0.31409755  0.08327927  0.33774257     0.37200
N105        N  0.31439639  0.25845212  0.43065244    -0.43000
N106        N  0.30204085  0.04813545  0.32331956    -0.43000
C107        C  0.33754588  0.16097718  0.16711265     0.00500
C108        C  0.37557425  0.16519550  0.14638064    -0.11300
C109        C  0.37727472  0.16671854  0.10597849     0.02800
C110        C  0.33892622  0.16088958  0.08477670     0.00500
C111        C  0.30497159  0.16507603  0.10556504    -0.11300
C112        C  0.30484037  0.16670526  0.14599132     0.02700
H113        H  0.40584019  0.17097377  0.16158431     0.15600
H114        H  0.28015814  0.17056380  0.09039220     0.15600
C115        C  0.27390376  0.17933845  0.16448777     0.37300
C116        C  0.42061317  0.17923822  0.08777853     0.37200
N117        N  0.24942644  0.18995189  0.17917906    -0.43000
N118        N  0.45559784  0.18958663  0.07356574    -0.43000
N119        N  0.44506453  0.40046894  0.01154770    -0.26600
N120        N  0.48510165  0.40186751  0.01047161    -0.34400
C121        C  0.47856715  0.35909166  0.01057039     0.01800
C122        C  0.43231321  0.32984764  0.51229502     0.07800
C123        C  0.41187434  0.35675152  0.01253796    -0.05300
H124        H  0.50530818  0.35011045  0.00855822     0.08400
H125        H  0.37576612  0.34547998  0.01215153     0.09600
Cu126      Cu  0.04669133  0.46177662  0.00669626     0.44200
Cu127      Cu  0.43703740  0.45782573  0.00855172     0.42000
Cu128      Cu  0.03920603  0.06347973  0.48663914     0.43900
N129        N  0.10307118  0.02564186  0.99978224    -0.34000
N130        N  0.10050786  0.06245960  0.49074065    -0.28200
C131        C  0.14299570  0.09792986  0.48740243    -0.04300
C132        C  0.17317382  0.08234586  0.49504654     0.07900
C133        C  0.14712725  0.03669339  0.00311182     0.01700
H134        H  0.15114917  0.13249814  0.48114169     0.09300
H135        H  0.15913420  0.01331390  0.01075439     0.08400
N136        N  0.47460468  0.05746178  0.99092150    -0.35400
N137        N  0.43762329  0.01927459  0.50073733    -0.27600
C138        C  0.40214993  0.02722370  0.50391558    -0.02800
C139        C  0.41766112  0.07225773  0.49495332     0.05800
C140        C  0.46354842  0.09064384  0.98690018     0.03900
H141        H  0.36782705  0.00214426  0.01195781     0.09000
H142        H  0.48733074  0.12565709  0.47988389     0.07800
N143        N  0.43771204  0.40278539  0.74426667    -0.26600
N144        N  0.47528741  0.40024760  0.73771475    -0.34400
C145        C  0.46446817  0.35611129  0.73548004     0.01800
C146        C  0.41801873  0.33016431  0.74089402     0.07800
C147        C  0.40200332  0.36043068  0.74672602    -0.05900
H148        H  0.48867545  0.34398182  0.73156551     0.08400
H149        H  0.36727737  0.35239395  0.75281208     0.09600
Cu150      Cu  0.04002951  0.45706352  0.73621353     0.44200
Cu151      Cu  0.43641175  0.46364530  0.75050216     0.42000
Cu152      Cu  0.04404668  0.06435668  0.76358103     0.43900
N153        N  0.10003578  0.01771322  0.74608218    -0.34000
N154        N  0.10118547  0.05569322  0.75827911    -0.28200
C155        C  0.14480670  0.08760956  0.76421091    -0.04300
C156        C  0.17204407  0.06875583  0.75497453     0.07900
C157        C  0.14299528  0.02472293  0.74317076     0.01700
H158        H  0.15586201  0.12224738  0.77327017     0.09300
H159        H  0.15221782  0.99963926  0.73354360     0.08400
N160        N  0.48264743  0.06541200  0.76118688    -0.35400
N161        N  0.44311114  0.02825328  0.75528240    -0.27600
C162        C  0.41017015  0.03983498  0.75236810    -0.02800
C163        C  0.43009797  0.08635178  0.75715014     0.05800
C164        C  0.47593599  0.10175275  0.76268212     0.03900
H165        H  0.37461814  0.01626671  0.74698440     0.09000
H166        H  0.50248730  0.13664073  0.76637328     0.07800
C167        C  0.33838286  0.16073171  0.54047252     0.30700
C168        C  0.34174439  0.16734967  0.96130391     0.30700
C169        C  0.35725875  0.13301237  0.51899567    -0.05500
C170        C  0.29224626  0.14343624  0.52005353    -0.06300
C171        C  0.36702908  0.20870977  0.52373202    -0.06100
C172        C  0.36066290  0.13783007  0.97890160    -0.05500
C173        C  0.29431837  0.14766835  0.97998413    -0.06300
C174        C  0.36962865  0.21226157  0.98359914    -0.06200
C175        C  0.38440404  0.11635584  0.96588884    -0.31500
N176        N  0.39208843  0.09598980  0.49627137     0.15000
C177        C  0.37493234  0.10503811  0.52867096    -0.31500
H178        H  0.37725938  0.09383250  0.55733625     0.16900
C179        C  0.25025910  0.12680085  0.96651432    -0.30500
N180        N  0.22166995  0.10893194  0.49709042     0.13700
C181        C  0.24666176  0.11758296  0.52966159    -0.30500
C182        C  0.39748615  0.25772517  0.97529031    -0.30800
N183        N  0.40967144  0.28141483  0.50898792     0.14200
H184        H  0.40720835  0.27290629  0.94696665     0.16800
C185        C  0.39139090  0.25200320  0.53875818    -0.30800
H186        H  0.39467663  0.26156758  0.56898044     0.16800
H187        H  0.23247524  0.10442241  0.55787309     0.16800
H188        H  0.39609197  0.11612682  0.93669796     0.16900
H189        H  0.23980433  0.12267017  0.93661242     0.16800
C190        C  0.33912005  0.16667811  0.79063594     0.30700
C191        C  0.33768995  0.16069512  0.71140114     0.30700
C192        C  0.36960420  0.14890576  0.77220597    -0.05500
C193        C  0.29244456  0.13621397  0.77214522    -0.06300
C194        C  0.35602559  0.21199809  0.76887751    -0.06100
C195        C  0.36766353  0.14434191  0.73202927    -0.05500
C196        C  0.29171831  0.13200034  0.73212818    -0.06300
C197        C  0.35487812  0.20852069  0.72863922    -0.06200
C198        C  0.38984611  0.12014074  0.72234338    -0.31500
N199        N  0.40791721  0.11332484  0.75477156     0.15000
C200        C  0.39638230  0.13116263  0.78528716    -0.31500
H201        H  0.40448180  0.12866644  0.81502416     0.16900
C202        C  0.24702905  0.10293567  0.72193339    -0.30500
N203        N  0.22079904  0.09192282  0.75429892     0.13700
C204        C  0.24803807  0.11213283  0.78510782    -0.30500
C205        C  0.37741645  0.25201626  0.71396966    -0.30800
N206        N  0.39220451  0.28171383  0.74396631     0.14200
H207        H  0.38431412  0.26134765  0.68382481     0.16800
C208        C  0.38049809  0.25801336  0.77745921    -0.30800
H209        H  0.39171494  0.27347219  0.80559545     0.16800
H210        H  0.23625779  0.11026429  0.81459907     0.16800
H211        H  0.39119649  0.10658613  0.69421211     0.16900
H212        H  0.23404432  0.09245103  0.69300442     0.16800
C213        C  0.33972592  0.16816409  0.91709413     0.00500
C214        C  0.33143542  0.12881455  0.89628642    -0.11300
C215        C  0.32873774  0.12695419  0.85603586     0.02800
C216        C  0.33676454  0.16604787  0.83492807     0.00500
C217        C  0.33568812  0.20152270  0.85589376    -0.11300
C218        C  0.33522384  0.20188760  0.89645812     0.02700
H219        H  0.32439075  0.09812945  0.91149734     0.15600
H220        H  0.33138661  0.22714605  0.84095681     0.15600
C221        C  0.32404058  0.23348946  0.91555275     0.37300
C222        C  0.31409751  0.08327927  0.83774271     0.37200
N223        N  0.31439689  0.25845245  0.93065237    -0.43000
N224        N  0.30204068  0.04813541  0.82331976    -0.43000
C225        C  0.33754566  0.16097697  0.66711266     0.00500
C226        C  0.37557396  0.16519523  0.64638060    -0.11300
C227        C  0.37727445  0.16671837  0.60597846     0.02800
C228        C  0.33892593  0.16088936  0.58477671     0.00500
C229        C  0.30497128  0.16507579  0.60556507    -0.11300
C230        C  0.30484017  0.16670508  0.64599136     0.02700
H231        H  0.40583989  0.17097346  0.66158426     0.15600
H232        H  0.28015780  0.17056348  0.59039229     0.15600
C233        C  0.27390361  0.17933822  0.66448790     0.37300
C234        C  0.42061292  0.17923794  0.58777847     0.37200
N235        N  0.24942628  0.18995159  0.67917932    -0.43000
N236        N  0.45559754  0.18958629  0.57356565    -0.43000
N237        N  0.44506430  0.90046873  0.51154760    -0.26600
N238        N  0.48510140  0.90186722  0.51047151    -0.34400
C239        C  0.47856679  0.85909133  0.51057038     0.01800
C240        C  0.43231352  0.82984792  0.01229490     0.07800
C241        C  0.41187407  0.85675133  0.51253794    -0.05300
H242        H  0.50530777  0.85011005  0.50855822     0.08400
H243        H  0.37576586  0.84547989  0.51215153     0.09600
Cu244      Cu  0.04669122  0.96177638  0.50669645     0.44200
Cu245      Cu  0.43703709  0.95782552  0.50855165     0.42000
Cu246      Cu  0.03920635  0.56348018  0.98663933     0.43900
N247        N  0.10307095  0.52564165  0.49978232    -0.34000
N248        N  0.10050812  0.56245986  0.99074066    -0.28200
C249        C  0.14299598  0.59793010  0.98740254    -0.04300
C250        C  0.17317407  0.58234605  0.99504656     0.07900
C251        C  0.14712702  0.53669322  0.50311174     0.01700
H252        H  0.15114953  0.63249844  0.98114194     0.09300
H253        H  0.15913403  0.51331369  0.51075435     0.08400
N254        N  0.47460437  0.55746151  0.49092153    -0.35400
N255        N  0.43762355  0.51927474  0.00073723    -0.27600
C256        C  0.40215023  0.52722387  0.00391555    -0.02800
C257        C  0.41766135  0.57225788  0.99495328     0.05800
C258        C  0.46354813  0.59064358  0.48690029     0.03900
H259        H  0.36782663  0.50214398  0.51195769     0.09000
H260        H  0.48733100  0.62565723  0.97988383     0.07800
N261        N  0.43771225  0.90278551  0.24426647    -0.26600
N262        N  0.47528766  0.90024770  0.23771483    -0.34400
C263        C  0.46446845  0.85611139  0.23548033     0.01800
C264        C  0.41801899  0.83016442  0.24089412     0.07800
C265        C  0.40200353  0.86043080  0.24672583    -0.05900
H266        H  0.48867576  0.84398192  0.23156601     0.08400
H267        H  0.36727754  0.85239408  0.25281172     0.09600
Cu268      Cu  0.04002969  0.95706358  0.23621361     0.44200
Cu269      Cu  0.43641197  0.96364543  0.25050167     0.42000
Cu270      Cu  0.04404688  0.56435680  0.26358083     0.43900
N271        N  0.10003594  0.51771335  0.24608214    -0.34000
N272        N  0.10118565  0.55569337  0.25827897    -0.28200
C273        C  0.14480689  0.58760973  0.26421070    -0.04300
C274        C  0.17204423  0.56875598  0.25497432     0.07900
C275        C  0.14299543  0.52472302  0.24317064     0.01700
H276        H  0.15586221  0.62224755  0.27326994     0.09300
H277        H  0.15221784  0.49963933  0.23354354     0.08400
N278        N  0.48264754  0.56541197  0.26118668    -0.35400
N279        N  0.44311125  0.52825323  0.25528210    -0.27600
C280        C  0.41017026  0.53983493  0.25236773    -0.02800
C281        C  0.43009803  0.58635172  0.25714997     0.05800
C282        C  0.47593601  0.60175264  0.26268195     0.03900
H283        H  0.37461829  0.51626661  0.24698391     0.09000
H284        H  0.50248742  0.63664076  0.26637318     0.07800
C285        C  0.33838316  0.66073197  0.04047250     0.30700
C286        C  0.34174413  0.66734939  0.46130387     0.30700
C287        C  0.35725896  0.63301255  0.01899564    -0.05500
C288        C  0.29224653  0.64343662  0.02005352    -0.06300
C289        C  0.36702946  0.70871001  0.02373199    -0.06100
C290        C  0.36066253  0.63782971  0.47890154    -0.05500
C291        C  0.29431813  0.64766817  0.47998407    -0.06300
C292        C  0.36962841  0.71226126  0.48359914    -0.06200
C293        C  0.38440366  0.61635543  0.46588876    -0.31500
N294        N  0.39208866  0.59598998  0.99627133     0.15000
C295        C  0.37493270  0.60503841  0.02867094    -0.31500
H296        H  0.37725991  0.59383291  0.05733623     0.16900
C297        C  0.25025889  0.62680081  0.46651423    -0.30500
N298        N  0.22167021  0.60893214  0.99709042     0.13700
C299        C  0.24666202  0.61758331  0.02966160    -0.30500
C300        C  0.39748588  0.75772487  0.47529031    -0.30800
N301        N  0.40967173  0.78141509  0.00898785     0.14200
H302        H  0.40720813  0.77290596  0.44696670     0.16800
C303        C  0.39139123  0.75200346  0.03875810    -0.30800
H304        H  0.39467692  0.76156787  0.06898044     0.16800
H305        H  0.23247553  0.60442277  0.05787307     0.16800
H306        H  0.39609154  0.61612634  0.43669802     0.16900
H307        H  0.23980417  0.62267028  0.43661228     0.16800
C308        C  0.33912014  0.66667818  0.29063590     0.30700
C309        C  0.33769012  0.66069524  0.21140110     0.30700
C310        C  0.36960433  0.64890583  0.27220595    -0.05500
C311        C  0.29244470  0.63621402  0.27214512    -0.06300
C312        C  0.35602567  0.71199818  0.26887752    -0.06100
C313        C  0.36766367  0.64434198  0.23202923    -0.05500
C314        C  0.29171848  0.63200046  0.23212808    -0.06300
C315        C  0.35487827  0.70852082  0.22863922    -0.06200
C316        C  0.38984615  0.62014071  0.22234334    -0.31500
N317        N  0.40791722  0.61332477  0.25477150     0.15000
C318        C  0.39638231  0.63116254  0.28528711    -0.31500
H319        H  0.40448173  0.62866623  0.31502415     0.16900
C320        C  0.24702920  0.60293588  0.22193319    -0.30500
N321        N  0.22079921  0.59192294  0.25429876     0.13700
C322        C  0.24803820  0.61213288  0.28510768    -0.30500
C323        C  0.37741670  0.75201641  0.21396970    -0.30800
N324        N  0.39220474  0.78171394  0.24396638     0.14200
H325        H  0.38431442  0.76134784  0.18382486     0.16800
C326        C  0.38049826  0.75801344  0.27745927    -0.30800
H327        H  0.39171510  0.77347220  0.30559551     0.16800
H328        H  0.23625791  0.61026434  0.31459893     0.16800
H329        H  0.39119651  0.60658610  0.19421204     0.16900
H330        H  0.23404454  0.59245143  0.19300431     0.16800
C331        C  0.33972569  0.66816387  0.41709411     0.00500
C332        C  0.33143523  0.62881434  0.39628636    -0.11300
C333        C  0.32873770  0.62695413  0.35603577     0.02800
C334        C  0.33676455  0.66604787  0.33492805     0.00500
C335        C  0.33568802  0.70152267  0.35589378    -0.11300
C336        C  0.33522364  0.70188741  0.39645817     0.02700
H337        H  0.32439047  0.59812923  0.41149718     0.15600
H338        H  0.33138662  0.72714603  0.34095692     0.15600
C339        C  0.32404034  0.73348923  0.41555283     0.37300
C340        C  0.31409748  0.58327922  0.33774255     0.37200
N341        N  0.31439665  0.75845223  0.43065246    -0.43000
N342        N  0.30204082  0.54813543  0.32331952    -0.43000
C343        C  0.33754590  0.66097715  0.16711264     0.00500
C344        C  0.37557429  0.66519558  0.14638064    -0.11300
C345        C  0.37727473  0.66671855  0.10597849     0.02800
C346        C  0.33892622  0.66088956  0.08477669     0.00500
C347        C  0.30497165  0.66507611  0.10556503    -0.11300
C348        C  0.30484041  0.66670523  0.14599129     0.02700
H349        H  0.40584022  0.67097390  0.16158434     0.15600
H350        H  0.28015824  0.67056396  0.09039220     0.15600
C351        C  0.27390388  0.67933843  0.16448776     0.37300
C352        C  0.42061317  0.67923808  0.08777854     0.37200
N353        N  0.24942667  0.68995200  0.17917910    -0.43000
N354        N  0.45559779  0.68958641  0.07356573    -0.43000
N355        N  0.44506463  0.90046900  0.01154764    -0.26600
N356        N  0.48510173  0.90186752  0.01047160    -0.34400
C357        C  0.47856715  0.85909164  0.01057039     0.01800
C358        C  0.43231316  0.82984763  0.51229503     0.07800
C359        C  0.41187438  0.85675158  0.01253779    -0.05300
H360        H  0.50530816  0.85011040  0.00855823     0.08400
H361        H  0.37576623  0.84548012  0.01215128     0.09600
Cu362      Cu  0.04669129  0.96177665  0.00669626     0.44200
Cu363      Cu  0.43703744  0.95782580  0.00855173     0.42000
Cu364      Cu  0.03920607  0.56347982  0.48663915     0.43900
N365        N  0.10307115  0.52564189  0.99978226    -0.34000
N366        N  0.10050786  0.56245958  0.49074067    -0.28200
C367        C  0.14299571  0.59792981  0.48740240    -0.04300
C368        C  0.17317384  0.58234578  0.49504635     0.07900
C369        C  0.14712722  0.53669342  0.00311183     0.01700
H370        H  0.15114923  0.63249810  0.48114175     0.09300
H371        H  0.15913419  0.51331393  0.01075441     0.08400
N372        N  0.47460466  0.55746180  0.99092151    -0.35400
N373        N  0.43762321  0.51927447  0.50073717    -0.27600
C374        C  0.40214987  0.52722360  0.50391550    -0.02800
C375        C  0.41766112  0.57225769  0.49495333     0.05800
C376        C  0.46354837  0.59064383  0.98690021     0.03900
H377        H  0.36782696  0.50214414  0.01195783     0.09000
H378        H  0.48733080  0.62565698  0.47988391     0.07800
N379        N  0.43771196  0.90278537  0.74426669    -0.26600
N380        N  0.47528736  0.90024761  0.73771476    -0.34400
C381        C  0.46446815  0.85611135  0.73548000     0.01800
C382        C  0.41801874  0.83016432  0.74089387     0.07800
C383        C  0.40200328  0.86043063  0.74672596    -0.05900
H384        H  0.48867555  0.84398187  0.73156553     0.08400
H385        H  0.36727730  0.85239376  0.75281208     0.09600
Cu386      Cu  0.04002951  0.95706360  0.73621352     0.44200
Cu387      Cu  0.43641175  0.96364537  0.75050215     0.42000
Cu388      Cu  0.04404676  0.56435680  0.76358104     0.43900
N389        N  0.10003575  0.51771323  0.74608208    -0.34000
N390        N  0.10118547  0.55569322  0.75827910    -0.28200
C391        C  0.14480671  0.58760954  0.76421095    -0.04300
C392        C  0.17204408  0.56875582  0.75497452     0.07900
C393        C  0.14299526  0.52472296  0.74317059     0.01700
H394        H  0.15586202  0.62224734  0.77327027     0.09300
H395        H  0.15221775  0.49963932  0.73354333     0.08400
N396        N  0.48264745  0.56541196  0.76118681    -0.35400
N397        N  0.44311120  0.52825320  0.75528234    -0.27600
C398        C  0.41017015  0.53983482  0.75236795    -0.02800
C399        C  0.43009795  0.58635168  0.75715006     0.05800
C400        C  0.47593591  0.60175261  0.76268197     0.03900
H401        H  0.37461831  0.51626651  0.74698422     0.09000
H402        H  0.50248733  0.63664077  0.76637309     0.07800
C403        C  0.33838281  0.66073167  0.54047249     0.30700
C404        C  0.34174437  0.66734964  0.96130390     0.30700
C405        C  0.35725870  0.63301235  0.51899559    -0.05500
C406        C  0.29224623  0.64343628  0.52005346    -0.06300
C407        C  0.36702905  0.70870972  0.52373201    -0.06100
C408        C  0.36066274  0.63782989  0.97890158    -0.05500
C409        C  0.29431837  0.64766845  0.97998413    -0.06300
C410        C  0.36962875  0.71226152  0.98359912    -0.06200
C411        C  0.38440389  0.61635566  0.96588883    -0.31500
N412        N  0.39208846  0.59598981  0.49627135     0.15000
C413        C  0.37493240  0.60503819  0.52867091    -0.31500
H414        H  0.37725944  0.59383260  0.55733621     0.16900
C415        C  0.25025910  0.62680092  0.96651432    -0.30500
N416        N  0.22166996  0.60893197  0.49709027     0.13700
C417        C  0.24666171  0.61758303  0.52966149    -0.30500
C418        C  0.39748617  0.75772514  0.97529023    -0.30800
N419        N  0.40967137  0.78141480  0.50898793     0.14200
H420        H  0.40720829  0.77290623  0.94696664     0.16800
C421        C  0.39139085  0.75200314  0.53875818    -0.30800
H422        H  0.39467655  0.76156749  0.56898047     0.16800
H423        H  0.23247519  0.60442246  0.55787293     0.16800
H424        H  0.39609189  0.61612667  0.93669797     0.16900
H425        H  0.23980431  0.62267024  0.93661243     0.16800
C426        C  0.33912008  0.66667818  0.79063594     0.30700
C427        C  0.33768998  0.66069521  0.71140115     0.30700
C428        C  0.36960421  0.64890580  0.77220597    -0.05500
C429        C  0.29244459  0.63621400  0.77214522    -0.06300
C430        C  0.35602561  0.71199818  0.76887752    -0.06100
C431        C  0.36766355  0.64434197  0.73202926    -0.05500
C432        C  0.29171834  0.63200045  0.73212817    -0.06300
C433        C  0.35487813  0.70852077  0.72863923    -0.06200
C434        C  0.38984605  0.62014070  0.72234339    -0.31500
N435        N  0.40791711  0.61332472  0.75477153     0.15000
C436        C  0.39638224  0.63116255  0.78528715    -0.31500
H437        H  0.40448167  0.62866629  0.81502414     0.16900
C438        C  0.24702907  0.60293580  0.72193337    -0.30500
N439        N  0.22079906  0.59192282  0.75429891     0.13700
C440        C  0.24803812  0.61213273  0.78510782    -0.30500
C441        C  0.37741644  0.75201629  0.71396964    -0.30800
N442        N  0.39220456  0.78171388  0.74396627     0.14200
H443        H  0.38431409  0.76134769  0.68382479     0.16800
C444        C  0.38049812  0.75801345  0.77745920    -0.30800
H445        H  0.39171497  0.77347232  0.80559543     0.16800
H446        H  0.23625784  0.61026405  0.81459912     0.16800
H447        H  0.39119637  0.60658606  0.69421208     0.16900
H448        H  0.23404434  0.59245119  0.69300440     0.16800
C449        C  0.33972587  0.66816408  0.91709413     0.00500
C450        C  0.33143541  0.62881459  0.89628638    -0.11300
C451        C  0.32873773  0.62695422  0.85603586     0.02800
C452        C  0.33676454  0.66604792  0.83492806     0.00500
C453        C  0.33568816  0.70152276  0.85589377    -0.11300
C454        C  0.33522388  0.70188765  0.89645812     0.02700
H455        H  0.32439073  0.59812940  0.91149734     0.15600
H456        H  0.33138667  0.72714615  0.84095683     0.15600
C457        C  0.32404058  0.73348947  0.91555276     0.37300
C458        C  0.31409748  0.58327928  0.83774271     0.37200
N459        N  0.31439675  0.75845234  0.93065241    -0.43000
N460        N  0.30204067  0.54813546  0.82331974    -0.43000
C461        C  0.33754567  0.66097705  0.66711267     0.00500
C462        C  0.37557396  0.66519530  0.64638061    -0.11300
C463        C  0.37727435  0.66671822  0.60597846     0.02800
C464        C  0.33892582  0.66088922  0.58477670     0.00500
C465        C  0.30497123  0.66507578  0.60556506    -0.11300
C466        C  0.30484012  0.66670505  0.64599136     0.02700
H467        H  0.40583992  0.67097362  0.66158427     0.15600
H468        H  0.28015783  0.67056357  0.59039228     0.15600
C469        C  0.27390361  0.67933829  0.66448790     0.37300
C470        C  0.42061279  0.67923775  0.58777847     0.37200
N471        N  0.24942635  0.68995173  0.67917931    -0.43000
N472        N  0.45559741  0.68958608  0.57356565    -0.43000
N473        N  0.94506427  0.40046870  0.51154760    -0.26600
N474        N  0.98510137  0.40186719  0.51047151    -0.34400
C475        C  0.97856678  0.35909131  0.51057038     0.01800
C476        C  0.93231354  0.32984793  0.01229497     0.07800
C477        C  0.91187404  0.35675128  0.51253794    -0.05300
H478        H  0.00530779  0.35011001  0.50855823     0.08400
H479        H  0.87576585  0.34547975  0.51215154     0.09600
Cu480      Cu  0.54669118  0.46177627  0.50669645     0.44200
Cu481      Cu  0.93703717  0.45782559  0.50855166     0.42000
Cu482      Cu  0.53920633  0.06348006  0.98663933     0.43900
N483        N  0.60307094  0.02564163  0.49978233    -0.34000
N484        N  0.60050813  0.06245982  0.99074066    -0.28200
C485        C  0.64299597  0.09793008  0.98740255    -0.04300
C486        C  0.67317409  0.08234604  0.99504654     0.07900
C487        C  0.64712701  0.03669325  0.50311176     0.01700
H488        H  0.65114947  0.13249836  0.98114200     0.09300
H489        H  0.65913408  0.01331375  0.51075438     0.08400
N490        N  0.97460445  0.05746163  0.49092154    -0.35400
N491        N  0.93762351  0.01927470  0.00073722    -0.27600
C492        C  0.90215016  0.02722385  0.00391556    -0.02800
C493        C  0.91766138  0.07225791  0.99495327     0.05800
C494        C  0.96354819  0.09064371  0.48690030     0.03900
H495        H  0.86782672  0.00214404  0.51195770     0.09000
H496        H  0.98733109  0.12565717  0.97988380     0.07800
N497        N  0.93771224  0.40278546  0.24426647    -0.26600
N498        N  0.97528766  0.40024767  0.23771484    -0.34400
C499        C  0.96446841  0.35611133  0.23548034     0.01800
C500        C  0.91801893  0.33016441  0.24089411     0.07800
C501        C  0.90200350  0.36043078  0.24672583    -0.05900
H502        H  0.98867568  0.34398179  0.23156601     0.08400
H503        H  0.86727751  0.35239403  0.25281171     0.09600
Cu504      Cu  0.54002968  0.45706351  0.23621361     0.44200
Cu505      Cu  0.93641167  0.46364528  0.25050167     0.42000
Cu506      Cu  0.54404685  0.06435670  0.26358083     0.43900
N507        N  0.60003594  0.01771331  0.24608213    -0.34000
N508        N  0.60118565  0.05569336  0.25827896    -0.28200
C509        C  0.64480689  0.08760972  0.26421071    -0.04300
C510        C  0.67204424  0.06875599  0.25497432     0.07900
C511        C  0.64299544  0.02472306  0.24317063     0.01700
H512        H  0.65586223  0.12224756  0.27326998     0.09300
H513        H  0.65221790  0.99963930  0.23354348     0.08400
N514        N  0.98264759  0.06541201  0.26118668    -0.35400
N515        N  0.94311133  0.02825330  0.25528210    -0.27600
C516        C  0.91017030  0.03983496  0.25236773    -0.02800
C517        C  0.93009807  0.08635175  0.25714996     0.05800
C518        C  0.97593609  0.10175273  0.26268195     0.03900
H519        H  0.87461836  0.01626669  0.24698394     0.09000
H520        H  0.00248739  0.13664072  0.26637316     0.07800
C521        C  0.83838318  0.16073199  0.04047251     0.30700
C522        C  0.84174415  0.16734941  0.46130387     0.30700
C523        C  0.85725905  0.13301265  0.01899565    -0.05500
C524        C  0.79224655  0.14343654  0.02005352    -0.06300
C525        C  0.86702944  0.20871003  0.02373199    -0.06100
C526        C  0.86066260  0.13782977  0.47890156    -0.05500
C527        C  0.79431812  0.14766808  0.47998407    -0.06300
C528        C  0.86962839  0.21226128  0.48359913    -0.06200
C529        C  0.88440376  0.11635554  0.46588877    -0.31500
N530        N  0.89208876  0.09599009  0.99627133     0.15000
C531        C  0.87493271  0.10503844  0.02867093    -0.31500
H532        H  0.87725977  0.09383283  0.05733620     0.16900
C533        C  0.75025887  0.12680071  0.46651423    -0.30500
N534        N  0.72167022  0.10893220  0.99709041     0.13700
C535        C  0.74666202  0.11758324  0.02966159    -0.30500
C536        C  0.89748589  0.25772488  0.47529031    -0.30800
N537        N  0.90967175  0.28141511  0.00898788     0.14200
H538        H  0.90720813  0.27290596  0.44696670     0.16800
C539        C  0.89139123  0.25200345  0.03875811    -0.30800
H540        H  0.89467694  0.26156783  0.06898045     0.16800
H541        H  0.73247551  0.10442266  0.05787304     0.16800
H542        H  0.89609173  0.11612654  0.43669804     0.16900
H543        H  0.73980415  0.12267019  0.43661227     0.16800
C544        C  0.83912016  0.16667819  0.29063591     0.30700
C545        C  0.83769015  0.16069531  0.21140111     0.30700
C546        C  0.86960431  0.14890581  0.27220595    -0.05500
C547        C  0.79244472  0.13621403  0.27214513    -0.06300
C548        C  0.85602573  0.21199822  0.26887753    -0.06100
C549        C  0.86766364  0.14434195  0.23202923    -0.05500
C550        C  0.79171850  0.13200054  0.23212808    -0.06300
C551        C  0.85487830  0.20852087  0.22863924    -0.06200
C552        C  0.88984620  0.12014076  0.22234335    -0.31500
N553        N  0.90791727  0.11332480  0.25477150     0.15000
C554        C  0.89638235  0.13116259  0.28528711    -0.31500
H555        H  0.90448185  0.12866636  0.31502416     0.16900
C556        C  0.74702923  0.10293601  0.22193317    -0.30500
N557        N  0.72079923  0.09192301  0.25429874     0.13700
C558        C  0.74803822  0.11213283  0.28510768    -0.30500
C559        C  0.87741651  0.25201645  0.21396970    -0.30800
N560        N  0.89220459  0.28171397  0.24396638     0.14200
H561        H  0.88431421  0.26134789  0.18382486     0.16800
C562        C  0.88049825  0.25801348  0.27745928    -0.30800
H563        H  0.89171518  0.27347229  0.30559549     0.16800
H564        H  0.73625793  0.11026419  0.31459895     0.16800
H565        H  0.89119663  0.10658617  0.19421200     0.16900
H566        H  0.73404461  0.09245157  0.19300426     0.16800
C567        C  0.83972571  0.16816389  0.41709412     0.00500
C568        C  0.83143529  0.12881444  0.39628633    -0.11300
C569        C  0.82873776  0.12695416  0.35603578     0.02800
C570        C  0.83676455  0.16604789  0.33492804     0.00500
C571        C  0.83568803  0.20152265  0.35589378    -0.11300
C572        C  0.83522372  0.20188749  0.39645815     0.02700
H573        H  0.82439052  0.09812918  0.41149722     0.15600
H574        H  0.83138662  0.22714609  0.34095686     0.15600
C575        C  0.82404043  0.23348932  0.41555282     0.37300
C576        C  0.81409754  0.08327927  0.33774256     0.37200
N577        N  0.81439661  0.25845219  0.43065249    -0.43000
N578        N  0.80204083  0.04813544  0.32331956    -0.43000
C579        C  0.83754590  0.16097720  0.16711264     0.00500
C580        C  0.87557426  0.16519550  0.14638063    -0.11300
C581        C  0.87727474  0.16671854  0.10597849     0.02800
C582        C  0.83892625  0.16088959  0.08477669     0.00500
C583        C  0.80497162  0.16507606  0.10556502    -0.11300
C584        C  0.80484039  0.16670524  0.14599128     0.02700
H585        H  0.90584019  0.17097378  0.16158432     0.15600
H586        H  0.78015818  0.17056386  0.09039218     0.15600
C587        C  0.77390382  0.17933847  0.16448775     0.37300
C588        C  0.92061324  0.17923820  0.08777854     0.37200
N589        N  0.74942658  0.18995194  0.17917911    -0.43000
N590        N  0.95559789  0.18958663  0.07356574    -0.43000
N591        N  0.94506461  0.40046902  0.01154770    -0.26600
N592        N  0.98510170  0.40186751  0.01047159    -0.34400
C593        C  0.97856714  0.35909164  0.01057039     0.01800
C594        C  0.93231318  0.32984761  0.51229505     0.07800
C595        C  0.91187439  0.35675160  0.01253796    -0.05300
H596        H  0.00530817  0.35011036  0.00855818     0.08400
H597        H  0.87576620  0.34548007  0.01215153     0.09600
Cu598      Cu  0.54669131  0.46177664  0.00669652     0.44200
Cu599      Cu  0.93703755  0.45782592  0.00855175     0.42000
Cu600      Cu  0.53920600  0.06347972  0.48663915     0.43900
N601        N  0.60307121  0.02564189  0.99978224    -0.34000
N602        N  0.60050781  0.06245954  0.49074066    -0.28200
C603        C  0.64299563  0.09792978  0.48740239    -0.04300
C604        C  0.67317380  0.08234579  0.49504636     0.07900
C605        C  0.64712728  0.03669343  0.00311181     0.01700
H606        H  0.65114906  0.13249807  0.48114171     0.09300
H607        H  0.65913422  0.01331393  0.01075439     0.08400
N608        N  0.97460464  0.05746172  0.99092149    -0.35400
N609        N  0.93762330  0.01927456  0.50073718    -0.27600
C610        C  0.90214996  0.02722370  0.50391550    -0.02800
C611        C  0.91766116  0.07225775  0.49495330     0.05800
C612        C  0.96354839  0.09064377  0.98690020     0.03900
H613        H  0.86782698  0.00214421  0.01195782     0.09000
H614        H  0.98733082  0.12565711  0.47988392     0.07800
N615        N  0.93771204  0.40278539  0.74426668    -0.26600
N616        N  0.97528740  0.40024760  0.73771475    -0.34400
C617        C  0.96446815  0.35611129  0.73547999     0.01800
C618        C  0.91801870  0.33016430  0.74089388     0.07800
C619        C  0.90200331  0.36043068  0.74672597    -0.05900
H620        H  0.98867545  0.34398182  0.73156552     0.08400
H621        H  0.86727737  0.35239394  0.75281209     0.09600
Cu622      Cu  0.54002950  0.45706353  0.73621353     0.44200
Cu623      Cu  0.93641174  0.46364529  0.75050216     0.42000
Cu624      Cu  0.54404668  0.06435668  0.76358104     0.43900
N625        N  0.60003574  0.01771320  0.74608210    -0.34000
N626        N  0.60118545  0.05569318  0.75827910    -0.28200
C627        C  0.64480670  0.08760950  0.76421092    -0.04300
C628        C  0.67204406  0.06875576  0.75497453     0.07900
C629        C  0.64299524  0.02472291  0.74317062     0.01700
H630        H  0.65586203  0.12224730  0.77327018     0.09300
H631        H  0.65221772  0.99963925  0.73354336     0.08400
N632        N  0.98264742  0.06541199  0.76118683    -0.35400
N633        N  0.94311113  0.02825327  0.75528235    -0.27600
C634        C  0.91017013  0.03983497  0.75236795    -0.02800
C635        C  0.93009796  0.08635178  0.75715004     0.05800
C636        C  0.97593598  0.10175275  0.76268194     0.03900
H637        H  0.87461817  0.01626673  0.74698421     0.09000
H638        H  0.00248732  0.13664076  0.76637298     0.07800
C639        C  0.83838282  0.16073167  0.54047248     0.30700
C640        C  0.84174442  0.16734968  0.96130390     0.30700
C641        C  0.85725873  0.13301236  0.51899561    -0.05500
C642        C  0.79224623  0.14343622  0.52005347    -0.06300
C643        C  0.86702904  0.20870972  0.52373199    -0.06100
C644        C  0.86066288  0.13783004  0.97890159    -0.05500
C645        C  0.79431841  0.14766843  0.97998414    -0.06300
C646        C  0.86962874  0.21226156  0.98359912    -0.06200
C647        C  0.88440403  0.11635582  0.96588884    -0.31500
N648        N  0.89208843  0.09598980  0.49627133     0.15000
C649        C  0.87493234  0.10503812  0.52867090    -0.31500
H650        H  0.87725939  0.09383251  0.55733619     0.16900
C651        C  0.75025912  0.12680104  0.96651433    -0.30500
N652        N  0.72166993  0.10893194  0.49709027     0.13700
C653        C  0.74666170  0.11758294  0.52966149    -0.30500
C654        C  0.89748620  0.25772519  0.97529023    -0.30800
N655        N  0.90967141  0.28141480  0.50898794     0.14200
H656        H  0.90720830  0.27290626  0.94696668     0.16800
C657        C  0.89139086  0.25200312  0.53875817    -0.30800
H658        H  0.89467656  0.26156747  0.56898047     0.16800
H659        H  0.73247516  0.10442238  0.55787293     0.16800
H660        H  0.89609196  0.11612682  0.93669796     0.16900
H661        H  0.73980436  0.12267049  0.93661244     0.16800
C662        C  0.83912005  0.16667812  0.79063594     0.30700
C663        C  0.83768994  0.16069512  0.71140114     0.30700
C664        C  0.86960419  0.14890577  0.77220597    -0.05500
C665        C  0.79244457  0.13621396  0.77214522    -0.06300
C666        C  0.85602558  0.21199811  0.76887751    -0.06100
C667        C  0.86766352  0.14434191  0.73202926    -0.05500
C668        C  0.79171831  0.13200034  0.73212817    -0.06300
C669        C  0.85487810  0.20852069  0.72863922    -0.06200
C670        C  0.88984610  0.12014076  0.72234340    -0.31500
N671        N  0.90791719  0.11332483  0.75477153     0.15000
C672        C  0.89638229  0.13116263  0.78528715    -0.31500
H673        H  0.90448179  0.12866643  0.81502415     0.16900
C674        C  0.74702904  0.10293567  0.72193339    -0.30500
N675        N  0.72079905  0.09192276  0.75429893     0.13700
C676        C  0.74803811  0.11213276  0.78510781    -0.30500
C677        C  0.87741642  0.25201623  0.71396964    -0.30800
N678        N  0.89220450  0.28171383  0.74396627     0.14200
H679        H  0.88431406  0.26134760  0.68382479     0.16800
C680        C  0.88049810  0.25801340  0.77745919    -0.30800
H681        H  0.89171495  0.27347225  0.80559542     0.16800
H682        H  0.73625784  0.11026418  0.81459912     0.16800
H683        H  0.89119649  0.10658612  0.69421205     0.16900
H684        H  0.73404429  0.09245104  0.69300442     0.16800
C685        C  0.83972591  0.16816409  0.91709413     0.00500
C686        C  0.83143540  0.12881454  0.89628642    -0.11300
C687        C  0.82873773  0.12695419  0.85603586     0.02800
C688        C  0.83676453  0.16604787  0.83492807     0.00500
C689        C  0.83568810  0.20152270  0.85589376    -0.11300
C690        C  0.83522383  0.20188760  0.89645812     0.02700
H691        H  0.82439073  0.09812945  0.91149734     0.15600
H692        H  0.83138660  0.22714605  0.84095681     0.15600
C693        C  0.82404056  0.23348945  0.91555275     0.37300
C694        C  0.81409750  0.08327927  0.83774271     0.37200
N695        N  0.81439687  0.25845245  0.93065237    -0.43000
N696        N  0.80204066  0.04813541  0.82331976    -0.43000
C697        C  0.83754565  0.16097698  0.66711266     0.00500
C698        C  0.87557395  0.16519523  0.64638060    -0.11300
C699        C  0.87727443  0.16671837  0.60597845     0.02800
C700        C  0.83892590  0.16088935  0.58477669     0.00500
C701        C  0.80497123  0.16507576  0.60556506    -0.11300
C702        C  0.80484016  0.16670508  0.64599135     0.02700
H703        H  0.90583988  0.17097347  0.66158426     0.15600
H704        H  0.78015772  0.17056339  0.59039229     0.15600
C705        C  0.77390360  0.17933822  0.66448790     0.37300
C706        C  0.92061290  0.17923794  0.58777847     0.37200
N707        N  0.74942627  0.18995159  0.67917932    -0.43000
N708        N  0.95559752  0.18958629  0.57356565    -0.43000
N709        N  0.94506428  0.90046877  0.51154760    -0.26600
N710        N  0.98510140  0.90186729  0.51047152    -0.34400
C711        C  0.97856681  0.85909142  0.51057039     0.01800
C712        C  0.93231345  0.82984782  0.01229496     0.07800
C713        C  0.91187408  0.85675137  0.51253792    -0.05300
H714        H  0.00530786  0.85011016  0.50855823     0.08400
H715        H  0.87576585  0.84547988  0.51215144     0.09600
Cu716      Cu  0.54669119  0.96177634  0.50669646     0.44200
Cu717      Cu  0.93703707  0.95782553  0.50855163     0.42000
Cu718      Cu  0.53920635  0.56348018  0.98663933     0.43900
N719        N  0.60307093  0.52564164  0.49978232    -0.34000
N720        N  0.60050810  0.56245985  0.99074066    -0.28200
C721        C  0.64299596  0.59793008  0.98740251    -0.04300
C722        C  0.67317404  0.58234604  0.99504656     0.07900
C723        C  0.64712699  0.53669323  0.50311179     0.01700
H724        H  0.65114952  0.63249843  0.98114185     0.09300
H725        H  0.65913401  0.51331366  0.51075434     0.08400
N726        N  0.97460437  0.55746152  0.49092160    -0.35400
N727        N  0.93762359  0.51927482  0.00073738    -0.27600
C728        C  0.90215021  0.52722389  0.00391565    -0.02800
C729        C  0.91766132  0.57225788  0.99495327     0.05800
C730        C  0.96354811  0.59064356  0.48690029     0.03900
H731        H  0.86782659  0.50214397  0.51195769     0.09000
H732        H  0.98733097  0.62565721  0.97988378     0.07800
N733        N  0.93771219  0.90278544  0.24426647    -0.26600
N734        N  0.97528759  0.90024762  0.23771484    -0.34400
C735        C  0.96446837  0.85611131  0.23548034     0.01800
C736        C  0.91801890  0.83016436  0.24089412     0.07800
C737        C  0.90200343  0.86043073  0.24672580    -0.05900
H738        H  0.98867568  0.84398182  0.23156602     0.08400
H739        H  0.86727748  0.85239397  0.25281162     0.09600
Cu740      Cu  0.54002971  0.95706362  0.23621361     0.44200
Cu741      Cu  0.93641195  0.96364541  0.25050167     0.42000
Cu742      Cu  0.54404688  0.56435680  0.26358084     0.43900
N743        N  0.60003586  0.51771328  0.24608219    -0.34000
N744        N  0.60118560  0.55569329  0.25827911    -0.28200
C745        C  0.64480686  0.58760966  0.26421081    -0.04300
C746        C  0.67204418  0.56875588  0.25497447     0.07900
C747        C  0.64299536  0.52472296  0.24317068     0.01700
H748        H  0.65586222  0.62224753  0.27326991     0.09300
H749        H  0.65221775  0.49963929  0.23354346     0.08400
N750        N  0.98264754  0.56541198  0.26118667    -0.35400
N751        N  0.94311123  0.52825323  0.25528216    -0.27600
C752        C  0.91017024  0.53983492  0.25236789    -0.02800
C753        C  0.93009802  0.58635172  0.25715002     0.05800
C754        C  0.97593601  0.60175264  0.26268195     0.03900
H755        H  0.87461822  0.51626658  0.24698415     0.09000
H756        H  0.00248743  0.63664078  0.26637313     0.07800
C757        C  0.83838311  0.66073190  0.04047251     0.30700
C758        C  0.84174413  0.66734942  0.46130388     0.30700
C759        C  0.85725895  0.63301253  0.01899565    -0.05500
C760        C  0.79224649  0.64343654  0.02005353    -0.06300
C761        C  0.86702938  0.70870993  0.02373203    -0.06100
C762        C  0.86066252  0.63782973  0.47890155    -0.05500
C763        C  0.79431812  0.64766819  0.47998410    -0.06300
C764        C  0.86962842  0.71226133  0.48359914    -0.06200
C765        C  0.88440364  0.61635543  0.46588876    -0.31500
N766        N  0.89208865  0.59598997  0.99627133     0.15000
C767        C  0.87493269  0.60503840  0.02867094    -0.31500
H768        H  0.87725990  0.59383291  0.05733623     0.16900
C769        C  0.75025887  0.62680080  0.46651429    -0.30500
N770        N  0.72167017  0.60893213  0.99709042     0.13700
C771        C  0.74666199  0.61758328  0.02966159    -0.30500
C772        C  0.89748591  0.75772497  0.47529030    -0.30800
N773        N  0.90967166  0.78141499  0.00898789     0.14200
H774        H  0.90720813  0.77290606  0.44696674     0.16800
C775        C  0.89139114  0.75200335  0.03875816    -0.30800
H776        H  0.89467681  0.76156771  0.06898050     0.16800
H777        H  0.73247549  0.60442272  0.05787310     0.16800
H778        H  0.89609152  0.61612635  0.43669802     0.16900
H779        H  0.73980414  0.62267027  0.43661233     0.16800
C780        C  0.83912011  0.66667812  0.29063590     0.30700
C781        C  0.83769008  0.66069522  0.21140110     0.30700
C782        C  0.86960429  0.64890579  0.27220594    -0.05500
C783        C  0.79244467  0.63621399  0.27214511    -0.06300
C784        C  0.85602564  0.71199813  0.26887753    -0.06100
C785        C  0.86766365  0.64434197  0.23202922    -0.05500
C786        C  0.79171843  0.63200043  0.23212807    -0.06300
C787        C  0.85487819  0.70852078  0.22863923    -0.06200
C788        C  0.88984614  0.62014071  0.22234333    -0.31500
N789        N  0.90791722  0.61332477  0.25477151     0.15000
C790        C  0.89638228  0.63116253  0.28528711    -0.31500
H791        H  0.90448170  0.62866621  0.31502416     0.16900
C792        C  0.74702913  0.60293585  0.22193320    -0.30500
N793        N  0.72079917  0.59192290  0.25429880     0.13700
C794        C  0.74803819  0.61213286  0.28510769    -0.30500
C795        C  0.87741644  0.75201636  0.21396970    -0.30800
N796        N  0.89220455  0.78171389  0.24396638     0.14200
H797        H  0.88431415  0.76134781  0.18382486     0.16800
C798        C  0.88049817  0.75801338  0.27745928    -0.30800
H799        H  0.89171509  0.77347213  0.30559551     0.16800
H800        H  0.73625793  0.61026432  0.31459895     0.16800
H801        H  0.89119650  0.60658610  0.19421203     0.16900
H802        H  0.73404445  0.59245138  0.19300433     0.16800
C803        C  0.83972567  0.66816384  0.41709412     0.00500
C804        C  0.83143520  0.62881431  0.39628635    -0.11300
C805        C  0.82873766  0.62695403  0.35603577     0.02800
C806        C  0.83676449  0.66604778  0.33492804     0.00500
C807        C  0.83568791  0.70152252  0.35589379    -0.11300
C808        C  0.83522359  0.70188737  0.39645815     0.02700
H809        H  0.82439042  0.59812915  0.41149721     0.15600
H810        H  0.83138646  0.72714594  0.34095685     0.15600
C811        C  0.82404033  0.73348922  0.41555281     0.37300
C812        C  0.81409742  0.58327911  0.33774256     0.37200
N813        N  0.81439665  0.75845222  0.43065245    -0.43000
N814        N  0.80204071  0.54813526  0.32331957    -0.43000
C815        C  0.83754586  0.66097717  0.16711264     0.00500
C816        C  0.87557426  0.66519558  0.14638065    -0.11300
C817        C  0.87727471  0.66671855  0.10597850     0.02800
C818        C  0.83892620  0.66088955  0.08477670     0.00500
C819        C  0.80497162  0.66507611  0.10556502    -0.11300
C820        C  0.80484038  0.66670525  0.14599128     0.02700
H821        H  0.90584019  0.67097390  0.16158435     0.15600
H822        H  0.78015820  0.67056393  0.09039218     0.15600
C823        C  0.77390372  0.67933833  0.16448775     0.37300
C824        C  0.92061316  0.67923808  0.08777854     0.37200
N825        N  0.74942642  0.68995172  0.17917913    -0.43000
N826        N  0.95559778  0.68958641  0.07356573    -0.43000
N827        N  0.94506454  0.90046889  0.01154770    -0.26600
N828        N  0.98510165  0.90186740  0.01047158    -0.34400
C829        C  0.97856706  0.85909151  0.01057039     0.01800
C830        C  0.93231320  0.82984770  0.51229505     0.07800
C831        C  0.91187430  0.85675147  0.01253795    -0.05300
H832        H  0.00530805  0.85011019  0.00855819     0.08400
H833        H  0.87576614  0.84548001  0.01215153     0.09600
Cu834      Cu  0.54669151  0.96177663  0.00669627     0.44200
Cu835      Cu  0.93703742  0.95782576  0.00855173     0.42000
Cu836      Cu  0.53920607  0.56347982  0.48663915     0.43900
N837        N  0.60307113  0.52564188  0.99978229    -0.34000
N838        N  0.60050785  0.56245957  0.49074066    -0.28200
C839        C  0.64299570  0.59792982  0.48740244    -0.04300
C840        C  0.67317382  0.58234580  0.49504648     0.07900
C841        C  0.64712720  0.53669342  0.00311184     0.01700
H842        H  0.65114923  0.63249810  0.48114174     0.09300
H843        H  0.65913418  0.51331395  0.01075444     0.08400
N844        N  0.97460467  0.55746184  0.99092156    -0.35400
N845        N  0.93762322  0.51927450  0.50073732    -0.27600
C846        C  0.90214986  0.52722362  0.50391556    -0.02800
C847        C  0.91766109  0.57225768  0.49495332     0.05800
C848        C  0.96354835  0.59064383  0.98690019     0.03900
H849        H  0.86782698  0.50214419  0.01195793     0.09000
H850        H  0.98733078  0.62565695  0.47988386     0.07800
N851        N  0.93771204  0.90278540  0.74426669    -0.26600
N852        N  0.97528740  0.90024760  0.73771475    -0.34400
C853        C  0.96446817  0.85611131  0.73548003     0.01800
C854        C  0.91801878  0.83016433  0.74089400     0.07800
C855        C  0.90200328  0.86043065  0.74672603    -0.05900
H856        H  0.98867552  0.84398179  0.73156549     0.08400
H857        H  0.86727745  0.85239387  0.75281206     0.09600
Cu858      Cu  0.54002947  0.95706360  0.73621353     0.44200
Cu859      Cu  0.93641174  0.96364536  0.75050215     0.42000
Cu860      Cu  0.54404675  0.56435680  0.76358104     0.43900
N861        N  0.60003574  0.51771322  0.74608214    -0.34000
N862        N  0.60118545  0.55569324  0.75827910    -0.28200
C863        C  0.64480669  0.58760956  0.76421095    -0.04300
C864        C  0.67204406  0.56875582  0.75497456     0.07900
C865        C  0.64299523  0.52472294  0.74317074     0.01700
H866        H  0.65586201  0.62224738  0.77327024     0.09300
H867        H  0.65221775  0.49963924  0.73354354     0.08400
N868        N  0.98264745  0.56541194  0.76118687    -0.35400
N869        N  0.94311120  0.52825320  0.75528233    -0.27600
C870        C  0.91017016  0.53983484  0.75236795    -0.02800
C871        C  0.93009796  0.58635169  0.75715011     0.05800
C872        C  0.97593592  0.60175260  0.76268213     0.03900
H873        H  0.87461832  0.51626655  0.74698418     0.09000
H874        H  0.00248732  0.63664072  0.76637332     0.07800
C875        C  0.83838285  0.66073172  0.54047249     0.30700
C876        C  0.84174432  0.66734956  0.96130390     0.30700
C877        C  0.85725871  0.63301238  0.51899560    -0.05500
C878        C  0.79224624  0.64343632  0.52005349    -0.06300
C879        C  0.86702907  0.70870979  0.52373201    -0.06100
C880        C  0.86066272  0.63782986  0.97890158    -0.05500
C881        C  0.79431832  0.64766832  0.97998413    -0.06300
C882        C  0.86962867  0.71226143  0.98359915    -0.06200
C883        C  0.88440388  0.61635565  0.96588883    -0.31500
N884        N  0.89208844  0.59598981  0.49627135     0.15000
C885        C  0.87493239  0.60503821  0.52867091    -0.31500
H886        H  0.87725946  0.59383264  0.55733622     0.16900
C887        C  0.75025905  0.62680086  0.96651432    -0.30500
N888        N  0.72166995  0.60893197  0.49709034     0.13700
C889        C  0.74666172  0.61758304  0.52966154    -0.30500
C890        C  0.89748609  0.75772502  0.97529031    -0.30800
N891        N  0.90967142  0.78141488  0.50898794     0.14200
H892        H  0.90720820  0.77290610  0.94696659     0.16800
C893        C  0.89139087  0.75200321  0.53875817    -0.30800
H894        H  0.89467659  0.76156758  0.56898047     0.16800
H895        H  0.73247520  0.60442248  0.55787300     0.16800
H896        H  0.89609187  0.61612666  0.93669797     0.16900
H897        H  0.73980425  0.62267024  0.93661243     0.16800
C898        C  0.83912006  0.66667815  0.79063594     0.30700
C899        C  0.83769000  0.66069521  0.71140115     0.30700
C900        C  0.86960420  0.64890577  0.77220598    -0.05500
C901        C  0.79244458  0.63621400  0.77214522    -0.06300
C902        C  0.85602558  0.71199815  0.76887752    -0.06100
C903        C  0.86766357  0.64434196  0.73202928    -0.05500
C904        C  0.79171833  0.63200045  0.73212817    -0.06300
C905        C  0.85487814  0.70852077  0.72863923    -0.06200
C906        C  0.88984608  0.62014070  0.72234336    -0.31500
N907        N  0.90791719  0.61332477  0.75477155     0.15000
C908        C  0.89638226  0.63116256  0.78528715    -0.31500
H909        H  0.90448167  0.62866626  0.81502414     0.16900
C910        C  0.74702906  0.60293580  0.72193337    -0.30500
N911        N  0.72079905  0.59192282  0.75429892     0.13700
C912        C  0.74803811  0.61213270  0.78510782    -0.30500
C913        C  0.87741644  0.75201632  0.71396966    -0.30800
N914        N  0.89220453  0.78171388  0.74396632     0.14200
H915        H  0.88431412  0.76134774  0.68382482     0.16800
C916        C  0.88049808  0.75801342  0.77745922    -0.30800
H917        H  0.89171492  0.77347226  0.80559546     0.16800
H918        H  0.73625785  0.61026398  0.81459914     0.16800
H919        H  0.89119637  0.60658605  0.69421215     0.16900
H920        H  0.73404433  0.59245119  0.69300440     0.16800
C921        C  0.83972584  0.66816403  0.91709413     0.00500
C922        C  0.83143536  0.62881455  0.89628639    -0.11300
C923        C  0.82873767  0.62695417  0.85603586     0.02800
C924        C  0.83676450  0.66604787  0.83492807     0.00500
C925        C  0.83568812  0.70152274  0.85589376    -0.11300
C926        C  0.83522386  0.70188762  0.89645812     0.02700
H927        H  0.82439069  0.59812934  0.91149735     0.15600
H928        H  0.83138663  0.72714605  0.84095685     0.15600
C929        C  0.82404057  0.73348947  0.91555275     0.37300
C930        C  0.81409743  0.58327923  0.83774271     0.37200
N931        N  0.81439674  0.75845234  0.93065241    -0.43000
N932        N  0.80204065  0.54813541  0.82331972    -0.43000
C933        C  0.83754575  0.66097705  0.66711267     0.00500
C934        C  0.87557407  0.66519531  0.64638060    -0.11300
C935        C  0.87727450  0.66671832  0.60597844     0.02800
C936        C  0.83892592  0.66088925  0.58477670     0.00500
C937        C  0.80497136  0.66507577  0.60556510    -0.11300
C938        C  0.80484021  0.66670507  0.64599137     0.02700
H939        H  0.90584007  0.67097364  0.66158426     0.15600
H940        H  0.78015787  0.67056357  0.59039227     0.15600
C941        C  0.77390368  0.67933828  0.66448790     0.37300
C942        C  0.92061295  0.67923793  0.58777844     0.37200
N943        N  0.74942638  0.68995170  0.67917927    -0.43000
N944        N  0.95559758  0.68958611  0.57356569    -0.43000
loop_ 
_geom_bond_atom_site_label_1 
_geom_bond_atom_site_label_2 
_geom_bond_distance 
_geom_bond_site_symmetry_2 
_ccdc_geom_bond_type 
N1            N2   1.325       .  A
N1            C5   1.346       .  A
N1           Cu9   2.081       .  S
N2            C3   1.347       .  A
N2         Cu480   2.074       .  S
C3            H6   1.081       .  S
C3          C122   1.378       .  A
C4          C121   1.378       .  A
C4          C123   1.379       .  A
C4           N65   1.428       .  S
C5            H7   1.082       .  S
C5          C122   1.379       .  A
Cu8         N474   2.074   1_455  S
Cu8         N247   2.074       .  S
Cu9         N373   2.080       .  S
Cu10         N12   2.086       .  S
Cu10        N608   2.086   1_455  S
N11         N130   1.325       .  A
N11          C15   1.346       .  A
N11        Cu244   2.074   1_545  S
N12         N129   1.325       .  A
N12          C13   1.348       .  A
C13          H16   1.082       .  S
C13          C14   1.380       .  A
C14         C133   1.378   1_556  A
C14          N62   1.430       .  S
C15          H17   1.082       .  S
C15         C132   1.378       .  A
N18         N137   1.325       .  A
N18          C22   1.348       .  A
N18        Cu600   2.086       .  S
N19         N136   1.325   1_554  A
N19          C20   1.348       .  A
N19        Cu363   2.080   1_545  S
C20         H141   1.082       .  S
C20          C21   1.379   1_554  A
C21         C140   1.381       .  A
C21          N58   1.432       .  S
C22         H142   1.082       .  S
C22         C139   1.381       .  A
H23         C138   1.082       .  S
H24         C140   1.082       .  S
N25          N26   1.325       .  A
N25          C29   1.347       .  A
N25         Cu33   2.081       .  S
N26          C27   1.349       .  A
N26        Cu504   2.084       .  S
C27          H30   1.082       .  S
C27          C28   1.380       .  A
C28          C29   1.378       .  A
C28          N88   1.431       .  S
C29          H31   1.082       .  S
Cu32        N498   2.084   1_455  S
Cu32        N271   2.084       .  S
Cu33        N279   2.081       .  S
Cu34         N36   2.086       .  S
Cu34        N514   2.086   1_455  S
N35          N36   1.326       .  A
N35          C39   1.349       .  A
N35        Cu268   2.084   1_545  S
N36          C37   1.347       .  A
C37          H40   1.082       .  S
C37          C38   1.380       .  A
C38          C39   1.380       .  A
C38          N85   1.432       .  S
C39          H41   1.081   1_545  S
N42          N43   1.324       .  A
N42          C46   1.349       .  A
N42        Cu506   2.086       .  S
N43          C44   1.347       .  A
N43        Cu269   2.081   1_545  S
C44          H47   1.082       .  S
C44          C45   1.380       .  A
C45          C46   1.381       .  A
C45          N81   1.433       .  S
C46          H48   1.082       .  S
C49          C51   1.544       .  S
C49          C53   1.537       .  S
C49          C52   1.543       .  S
C49         C110   1.534       .  S
C50          C54   1.550       .  S
C50          C56   1.540       .  S
C50          C55   1.536       .  S
C50          C95   1.534       .  S
C51          C59   1.382       .  A
C51         C172   1.396   1_554  A
C52          C63   1.383       .  A
C52         C173   1.393   1_554  A
C53          C67   1.377       .  A
C53         C174   1.394   1_554  A
C54          C57   1.384       .  A
C54         C169   1.396       .  A
C55          C61   1.378       .  A
C55         C170   1.393       .  A
C56          C64   1.381       .  A
C56         C171   1.394       .  A
C57         N176   1.355       .  A
C57          H70   1.082       .  S
N58          C59   1.355   1_556  A
N58         C175   1.355       .  A
C59          H60   1.082       .  S
C61         N180   1.354       .  A
C61          H71   1.083       .  S
N62          C63   1.356   1_556  A
N62         C179   1.354       .  A
C63          H69   1.082       .  S
C64         N183   1.356       .  A
C64          H66   1.082       .  S
N65          C67   1.354       .  A
N65         C182   1.356   1_554  A
C67          H68   1.083       .  S
C72          C74   1.548       .  S
C72          C76   1.545       .  S
C72          C75   1.538       .  S
C72          C98   1.535       .  S
C73          C77   1.547       .  S
C73          C79   1.538       .  S
C73          C78   1.540       .  S
C73         C107   1.534       .  S
C74          C82   1.383       .  A
C74          C77   1.397       .  A
C75          C86   1.379       .  A
C75          C78   1.391       .  A
C76          C90   1.385       .  A
C76          C79   1.396       .  A
C77          C80   1.385       .  A
C78          C84   1.383       .  A
C79          C87   1.379       .  A
C80          N81   1.356       .  A
C80          H93   1.082       .  S
N81          C82   1.355       .  A
C82          H83   1.082       .  S
C84          N85   1.356       .  A
C84          H94   1.082       .  S
N85          C86   1.356       .  A
C86          H92   1.083       .  S
C87          N88   1.354       .  A
C87          H89   1.083       .  S
N88          C90   1.356       .  A
C90          H91   1.081       .  S
C95          C96   1.407       .  A
C95         C100   1.417       .  A
C96         H101   1.082       .  S
C96          C97   1.396       .  A
C97          C98   1.417       .  A
C97         C104   1.446       .  S
C98          C99   1.408       .  A
C99         H102   1.079       .  S
C99         C100   1.404       .  A
C100        C103   1.444       .  S
C103        N105   1.158       .  T
C104        N106   1.157       .  T
C107        C108   1.406       .  A
C107        C112   1.417       .  A
C108        H113   1.080       .  S
C108        C109   1.400       .  A
C109        C110   1.418       .  A
C109        C116   1.445       .  S
C110        C111   1.408       .  A
C111        H114   1.081       .  S
C111        C112   1.400       .  A
C112        C115   1.445       .  S
C115        N117   1.157       .  T
C116        N118   1.158       .  T
N119        N120   1.325       .  A
N119        C123   1.346       .  A
N119       Cu127   2.081       .  S
N120        C121   1.347       .  A
N120       Cu598   2.074       .  S
C121        H124   1.081       .  S
C122        N183   1.428       .  S
C123        H125   1.082       .  S
Cu126       N592   2.074   1_455  S
Cu126       N365   2.074   1_554  S
Cu127       N255   2.080       .  S
Cu128       N130   2.086       .  S
Cu128       N490   2.086   1_455  S
N129        C133   1.346   1_556  A
N129       Cu362   2.074   1_546  S
N130        C131   1.348       .  A
C131        H134   1.082       .  S
C131        C132   1.380       .  A
C132        N180   1.430       .  S
C133        H135   1.082       .  S
N136        C140   1.348       .  A
N136       Cu482   2.086       .  S
N137        C138   1.348       .  A
N137       Cu245   2.080   1_545  S
C138        C139   1.379       .  A
C139        N176   1.432       .  S
N143        N144   1.325       .  A
N143        C147   1.347       .  A
N143       Cu151   2.081       .  S
N144        C145   1.349       .  A
N144       Cu622   2.084       .  S
C145        H148   1.082       .  S
C145        C146   1.380       .  A
C146        C147   1.378       .  A
C146        N206   1.431       .  S
C147        H149   1.082       .  S
Cu150       N616   2.084   1_455  S
Cu150       N389   2.084       .  S
Cu151       N397   2.081       .  S
Cu152       N154   2.086       .  S
Cu152       N632   2.086   1_455  S
N153        N154   1.326       .  A
N153        C157   1.349       .  A
N153       Cu386   2.084   1_545  S
N154        C155   1.347       .  A
C155        H158   1.082       .  S
C155        C156   1.380       .  A
C156        C157   1.380       .  A
C156        N203   1.432       .  S
C157        H159   1.081   1_545  S
N160        N161   1.324       .  A
N160        C164   1.349       .  A
N160       Cu624   2.086       .  S
N161        C162   1.347       .  A
N161       Cu387   2.081   1_545  S
C162        H165   1.082       .  S
C162        C163   1.380       .  A
C163        C164   1.381       .  A
C163        N199   1.433       .  S
C164        H166   1.082       .  S
C167        C169   1.544       .  S
C167        C171   1.537       .  S
C167        C170   1.543       .  S
C167        C228   1.534       .  S
C168        C172   1.550       .  S
C168        C174   1.540       .  S
C168        C173   1.536       .  S
C168        C213   1.534       .  S
C169        C177   1.382       .  A
C170        C181   1.383       .  A
C171        C185   1.377       .  A
C172        C175   1.384       .  A
C173        C179   1.378       .  A
C174        C182   1.381       .  A
C175        H188   1.082       .  S
N176        C177   1.355       .  A
C177        H178   1.082       .  S
C179        H189   1.083       .  S
N180        C181   1.356       .  A
C181        H187   1.082       .  S
C182        H184   1.082       .  S
N183        C185   1.354       .  A
C185        H186   1.083       .  S
C190        C192   1.548       .  S
C190        C194   1.545       .  S
C190        C193   1.538       .  S
C190        C216   1.535       .  S
C191        C195   1.547       .  S
C191        C197   1.538       .  S
C191        C196   1.540       .  S
C191        C225   1.534       .  S
C192        C200   1.383       .  A
C192        C195   1.397       .  A
C193        C204   1.379       .  A
C193        C196   1.391       .  A
C194        C208   1.385       .  A
C194        C197   1.396       .  A
C195        C198   1.385       .  A
C196        C202   1.383       .  A
C197        C205   1.379       .  A
C198        N199   1.356       .  A
C198        H211   1.082       .  S
N199        C200   1.355       .  A
C200        H201   1.082       .  S
C202        N203   1.356       .  A
C202        H212   1.082       .  S
N203        C204   1.356       .  A
C204        H210   1.083       .  S
C205        N206   1.354       .  A
C205        H207   1.083       .  S
N206        C208   1.356       .  A
C208        H209   1.081       .  S
C213        C214   1.407       .  A
C213        C218   1.417       .  A
C214        H219   1.082       .  S
C214        C215   1.396       .  A
C215        C216   1.417       .  A
C215        C222   1.446       .  S
C216        C217   1.408       .  A
C217        H220   1.079       .  S
C217        C218   1.404       .  A
C218        C221   1.444       .  S
C221        N223   1.158       .  T
C222        N224   1.157       .  T
C225        C226   1.406       .  A
C225        C230   1.417       .  A
C226        H231   1.080       .  S
C226        C227   1.400       .  A
C227        C228   1.418       .  A
C227        C234   1.445       .  S
C228        C229   1.408       .  A
C229        H232   1.081       .  S
C229        C230   1.400       .  A
C230        C233   1.445       .  S
C233        N235   1.157       .  T
C234        N236   1.158       .  T
N237        N238   1.325       .  A
N237        C241   1.346       .  A
N237       Cu245   2.081       .  S
N238        C239   1.347       .  A
N238       Cu716   2.074       .  S
C239        H242   1.081       .  S
C239        C358   1.378       .  A
C240        C357   1.378       .  A
C240        C359   1.379       .  A
C240        N301   1.428       .  S
C241        H243   1.082       .  S
C241        C358   1.379       .  A
Cu244       N710   2.074   1_455  S
Cu246       N248   2.086       .  S
Cu246       N844   2.086   1_455  S
N247        N366   1.325       .  A
N247        C251   1.346       .  A
N248        N365   1.325       .  A
N248        C249   1.348       .  A
C249        H252   1.082       .  S
C249        C250   1.380       .  A
C250        C369   1.378   1_556  A
C250        N298   1.430       .  S
C251        H253   1.082       .  S
C251        C368   1.378       .  A
N254        N373   1.325       .  A
N254        C258   1.348       .  A
N254       Cu836   2.086       .  S
N255        N372   1.325   1_554  A
N255        C256   1.348       .  A
C256        H377   1.082       .  S
C256        C257   1.379   1_554  A
C257        C376   1.381       .  A
C257        N294   1.432       .  S
C258        H378   1.082       .  S
C258        C375   1.381       .  A
H259        C374   1.082       .  S
H260        C376   1.082       .  S
N261        N262   1.325       .  A
N261        C265   1.347       .  A
N261       Cu269   2.081       .  S
N262        C263   1.349       .  A
N262       Cu740   2.084       .  S
C263        H266   1.082       .  S
C263        C264   1.380       .  A
C264        C265   1.378       .  A
C264        N324   1.431       .  S
C265        H267   1.082       .  S
Cu268       N734   2.084   1_455  S
Cu270       N272   2.086       .  S
Cu270       N750   2.086   1_455  S
N271        N272   1.326       .  A
N271        C275   1.349       .  A
N272        C273   1.347       .  A
C273        H276   1.082       .  S
C273        C274   1.380       .  A
C274        C275   1.380       .  A
C274        N321   1.432       .  S
C275        H277   1.081       .  S
N278        N279   1.324       .  A
N278        C282   1.349       .  A
N278       Cu742   2.086       .  S
N279        C280   1.347       .  A
C280        H283   1.082       .  S
C280        C281   1.380       .  A
C281        C282   1.381       .  A
C281        N317   1.433       .  S
C282        H284   1.082       .  S
C285        C287   1.544       .  S
C285        C289   1.537       .  S
C285        C288   1.543       .  S
C285        C346   1.534       .  S
C286        C290   1.550       .  S
C286        C292   1.540       .  S
C286        C291   1.536       .  S
C286        C331   1.534       .  S
C287        C295   1.382       .  A
C287        C408   1.396   1_554  A
C288        C299   1.383       .  A
C288        C409   1.393   1_554  A
C289        C303   1.377       .  A
C289        C410   1.394   1_554  A
C290        C405   1.396       .  A
C290        C293   1.384       .  A
C291        C406   1.393       .  A
C291        C297   1.378       .  A
C292        C407   1.394       .  A
C292        C300   1.381       .  A
C293        N412   1.355       .  A
C293        H306   1.082       .  S
N294        C411   1.355       .  A
N294        C295   1.355   1_556  A
C295        H296   1.082       .  S
C297        N416   1.354       .  A
C297        H307   1.083       .  S
N298        C415   1.354       .  A
N298        C299   1.356   1_556  A
C299        H305   1.082       .  S
C300        N419   1.356       .  A
C300        H302   1.082       .  S
N301        C418   1.356   1_554  A
N301        C303   1.354       .  A
C303        H304   1.083       .  S
C308        C310   1.548       .  S
C308        C312   1.545       .  S
C308        C311   1.538       .  S
C308        C334   1.535       .  S
C309        C313   1.547       .  S
C309        C315   1.538       .  S
C309        C314   1.540       .  S
C309        C343   1.534       .  S
C310        C318   1.383       .  A
C310        C313   1.397       .  A
C311        C322   1.379       .  A
C311        C314   1.391       .  A
C312        C326   1.385       .  A
C312        C315   1.396       .  A
C313        C316   1.385       .  A
C314        C320   1.383       .  A
C315        C323   1.379       .  A
C316        N317   1.356       .  A
C316        H329   1.082       .  S
N317        C318   1.355       .  A
C318        H319   1.082       .  S
C320        N321   1.356       .  A
C320        H330   1.082       .  S
N321        C322   1.356       .  A
C322        H328   1.083       .  S
C323        N324   1.354       .  A
C323        H325   1.083       .  S
N324        C326   1.356       .  A
C326        H327   1.081       .  S
C331        C332   1.407       .  A
C331        C336   1.417       .  A
C332        H337   1.082       .  S
C332        C333   1.396       .  A
C333        C334   1.417       .  A
C333        C340   1.446       .  S
C334        C335   1.408       .  A
C335        H338   1.079       .  S
C335        C336   1.404       .  A
C336        C339   1.444       .  S
C339        N341   1.158       .  T
C340        N342   1.157       .  T
C343        C344   1.406       .  A
C343        C348   1.417       .  A
C344        H349   1.080       .  S
C344        C345   1.400       .  A
C345        C346   1.418       .  A
C345        C352   1.445       .  S
C346        C347   1.408       .  A
C347        H350   1.081       .  S
C347        C348   1.400       .  A
C348        C351   1.445       .  S
C351        N353   1.157       .  T
C352        N354   1.158       .  T
N355        N356   1.325       .  A
N355        C359   1.346       .  A
N355       Cu363   2.081       .  S
N356        C357   1.347       .  A
N356       Cu834   2.074       .  S
C357        H360   1.081       .  S
C358        N419   1.428       .  S
C359        H361   1.082       .  S
Cu362       N828   2.074   1_455  S
Cu364       N366   2.086       .  S
Cu364       N726   2.086   1_455  S
N365        C369   1.346   1_556  A
N366        C367   1.348       .  A
C367        H370   1.082       .  S
C367        C368   1.380       .  A
C368        N416   1.430       .  S
C369        H371   1.082       .  S
N372        C376   1.348       .  A
N372       Cu718   2.086       .  S
N373        C374   1.348       .  A
C374        C375   1.379       .  A
C375        N412   1.432       .  S
N379        N380   1.325       .  A
N379        C383   1.347       .  A
N379       Cu387   2.081       .  S
N380        C381   1.349       .  A
N380       Cu858   2.084       .  S
C381        H384   1.082       .  S
C381        C382   1.380       .  A
C382        C383   1.378       .  A
C382        N442   1.431       .  S
C383        H385   1.082       .  S
Cu386       N852   2.084   1_455  S
Cu388       N390   2.086       .  S
Cu388       N868   2.086   1_455  S
N389        N390   1.326       .  A
N389        C393   1.349       .  A
N390        C391   1.347       .  A
C391        H394   1.082       .  S
C391        C392   1.380       .  A
C392        C393   1.380       .  A
C392        N439   1.432       .  S
C393        H395   1.081       .  S
N396        N397   1.324       .  A
N396        C400   1.349       .  A
N396       Cu860   2.086       .  S
N397        C398   1.347       .  A
C398        H401   1.082       .  S
C398        C399   1.380       .  A
C399        C400   1.381       .  A
C399        N435   1.433       .  S
C400        H402   1.082       .  S
C403        C405   1.544       .  S
C403        C407   1.537       .  S
C403        C406   1.543       .  S
C403        C464   1.534       .  S
C404        C408   1.550       .  S
C404        C410   1.540       .  S
C404        C409   1.536       .  S
C404        C449   1.534       .  S
C405        C413   1.382       .  A
C406        C417   1.383       .  A
C407        C421   1.377       .  A
C408        C411   1.384       .  A
C409        C415   1.378       .  A
C410        C418   1.381       .  A
C411        H424   1.082       .  S
N412        C413   1.355       .  A
C413        H414   1.082       .  S
C415        H425   1.083       .  S
N416        C417   1.356       .  A
C417        H423   1.082       .  S
C418        H420   1.082       .  S
N419        C421   1.354       .  A
C421        H422   1.083       .  S
C426        C428   1.548       .  S
C426        C430   1.545       .  S
C426        C429   1.538       .  S
C426        C452   1.535       .  S
C427        C431   1.547       .  S
C427        C433   1.538       .  S
C427        C432   1.540       .  S
C427        C461   1.534       .  S
C428        C436   1.383       .  A
C428        C431   1.397       .  A
C429        C440   1.379       .  A
C429        C432   1.391       .  A
C430        C444   1.385       .  A
C430        C433   1.396       .  A
C431        C434   1.385       .  A
C432        C438   1.383       .  A
C433        C441   1.379       .  A
C434        N435   1.356       .  A
C434        H447   1.082       .  S
N435        C436   1.355       .  A
C436        H437   1.082       .  S
C438        N439   1.356       .  A
C438        H448   1.082       .  S
N439        C440   1.356       .  A
C440        H446   1.083       .  S
C441        N442   1.354       .  A
C441        H443   1.083       .  S
N442        C444   1.356       .  A
C444        H445   1.081       .  S
C449        C450   1.407       .  A
C449        C454   1.417       .  A
C450        H455   1.082       .  S
C450        C451   1.396       .  A
C451        C452   1.417       .  A
C451        C458   1.446       .  S
C452        C453   1.408       .  A
C453        H456   1.079       .  S
C453        C454   1.404       .  A
C454        C457   1.444       .  S
C457        N459   1.158       .  T
C458        N460   1.157       .  T
C461        C462   1.406       .  A
C461        C466   1.417       .  A
C462        H467   1.080       .  S
C462        C463   1.400       .  A
C463        C464   1.418       .  A
C463        C470   1.445       .  S
C464        C465   1.408       .  A
C465        H468   1.081       .  S
C465        C466   1.400       .  A
C466        C469   1.445       .  S
C469        N471   1.157       .  T
C470        N472   1.158       .  T
N473        N474   1.325       .  A
N473        C477   1.346       .  A
N473       Cu481   2.081       .  S
N474        C475   1.347       .  A
C475        H478   1.081   1_655  S
C475        C594   1.378       .  A
C476        C593   1.378       .  A
C476        C595   1.379       .  A
C476        N537   1.428       .  S
C477        H479   1.082       .  S
C477        C594   1.379       .  A
Cu480       N719   2.074       .  S
Cu481       N845   2.080       .  S
Cu482       N484   2.086       .  S
N483        N602   1.325       .  A
N483        C487   1.346       .  A
N483       Cu716   2.074   1_545  S
N484        N601   1.325       .  A
N484        C485   1.348       .  A
C485        H488   1.082       .  S
C485        C486   1.380       .  A
C486        C605   1.378   1_556  A
C486        N534   1.430       .  S
C487        H489   1.082       .  S
C487        C604   1.378       .  A
N490        N609   1.325       .  A
N490        C494   1.348       .  A
N491        N608   1.325   1_554  A
N491        C492   1.348       .  A
N491       Cu835   2.080   1_545  S
C492        H613   1.082       .  S
C492        C493   1.379   1_554  A
C493        C612   1.381       .  A
C493        N530   1.432       .  S
C494        H614   1.082       .  S
C494        C611   1.381       .  A
H495        C610   1.082       .  S
H496        C612   1.082       .  S
N497        N498   1.325       .  A
N497        C501   1.347       .  A
N497       Cu505   2.081       .  S
N498        C499   1.349       .  A
C499        H502   1.082       .  S
C499        C500   1.380       .  A
C500        C501   1.378       .  A
C500        N560   1.431       .  S
C501        H503   1.082       .  S
Cu504       N743   2.084       .  S
Cu505       N751   2.081       .  S
Cu506       N508   2.086       .  S
N507        N508   1.326       .  A
N507        C511   1.349       .  A
N507       Cu740   2.084   1_545  S
N508        C509   1.347       .  A
C509        H512   1.082       .  S
C509        C510   1.380       .  A
C510        C511   1.380       .  A
C510        N557   1.432       .  S
C511        H513   1.081   1_545  S
N514        N515   1.324       .  A
N514        C518   1.349       .  A
N515        C516   1.347       .  A
N515       Cu741   2.081   1_545  S
C516        H519   1.082       .  S
C516        C517   1.380       .  A
C517        C518   1.381       .  A
C517        N553   1.433       .  S
C518        H520   1.082   1_655  S
C521        C523   1.544       .  S
C521        C525   1.537       .  S
C521        C524   1.543       .  S
C521        C582   1.534       .  S
C522        C526   1.550       .  S
C522        C528   1.540       .  S
C522        C527   1.536       .  S
C522        C567   1.534       .  S
C523        C531   1.382       .  A
C523        C644   1.396   1_554  A
C524        C535   1.383       .  A
C524        C645   1.393   1_554  A
C525        C539   1.377       .  A
C525        C646   1.394   1_554  A
C526        C641   1.396       .  A
C526        C529   1.384       .  A
C527        C642   1.393       .  A
C527        C533   1.378       .  A
C528        C643   1.394       .  A
C528        C536   1.381       .  A
C529        N648   1.355       .  A
C529        H542   1.082       .  S
N530        C647   1.355       .  A
N530        C531   1.355   1_556  A
C531        H532   1.082       .  S
C533        N652   1.354       .  A
C533        H543   1.083       .  S
N534        C651   1.354       .  A
N534        C535   1.356   1_556  A
C535        H541   1.082       .  S
C536        N655   1.356       .  A
C536        H538   1.082       .  S
N537        C654   1.356   1_554  A
N537        C539   1.354       .  A
C539        H540   1.083       .  S
C544        C546   1.548       .  S
C544        C548   1.545       .  S
C544        C547   1.538       .  S
C544        C570   1.535       .  S
C545        C549   1.547       .  S
C545        C551   1.538       .  S
C545        C550   1.540       .  S
C545        C579   1.534       .  S
C546        C554   1.383       .  A
C546        C549   1.397       .  A
C547        C558   1.379       .  A
C547        C550   1.391       .  A
C548        C562   1.385       .  A
C548        C551   1.396       .  A
C549        C552   1.385       .  A
C550        C556   1.383       .  A
C551        C559   1.379       .  A
C552        N553   1.356       .  A
C552        H565   1.082       .  S
N553        C554   1.355       .  A
C554        H555   1.082       .  S
C556        N557   1.356       .  A
C556        H566   1.082       .  S
N557        C558   1.356       .  A
C558        H564   1.083       .  S
C559        N560   1.354       .  A
C559        H561   1.083       .  S
N560        C562   1.356       .  A
C562        H563   1.081       .  S
C567        C568   1.407       .  A
C567        C572   1.417       .  A
C568        H573   1.082       .  S
C568        C569   1.396       .  A
C569        C570   1.417       .  A
C569        C576   1.446       .  S
C570        C571   1.408       .  A
C571        H574   1.079       .  S
C571        C572   1.404       .  A
C572        C575   1.444       .  S
C575        N577   1.158       .  T
C576        N578   1.157       .  T
C579        C580   1.406       .  A
C579        C584   1.417       .  A
C580        H585   1.080       .  S
C580        C581   1.400       .  A
C581        C582   1.418       .  A
C581        C588   1.445       .  S
C582        C583   1.408       .  A
C583        H586   1.081       .  S
C583        C584   1.400       .  A
C584        C587   1.445       .  S
C587        N589   1.157       .  T
C588        N590   1.158       .  T
N591        N592   1.325       .  A
N591        C595   1.346       .  A
N591       Cu599   2.081       .  S
N592        C593   1.347       .  A
C593        H596   1.081   1_655  S
C594        N655   1.428       .  S
C595        H597   1.082       .  S
Cu598       N837   2.074   1_554  S
Cu599       N727   2.080       .  S
Cu600       N602   2.086       .  S
N601        C605   1.346   1_556  A
N601       Cu834   2.074   1_546  S
N602        C603   1.348       .  A
C603        H606   1.082       .  S
C603        C604   1.380       .  A
C604        N652   1.430       .  S
C605        H607   1.082       .  S
N608        C612   1.348       .  A
N609        C610   1.348       .  A
N609       Cu717   2.080   1_545  S
C610        C611   1.379       .  A
C611        N648   1.432       .  S
N615        N616   1.325       .  A
N615        C619   1.347       .  A
N615       Cu623   2.081       .  S
N616        C617   1.349       .  A
C617        H620   1.082       .  S
C617        C618   1.380       .  A
C618        C619   1.378       .  A
C618        N678   1.431       .  S
C619        H621   1.082       .  S
Cu622       N861   2.084       .  S
Cu623       N869   2.081       .  S
Cu624       N626   2.086       .  S
N625        N626   1.326       .  A
N625        C629   1.349       .  A
N625       Cu858   2.084   1_545  S
N626        C627   1.347       .  A
C627        H630   1.082       .  S
C627        C628   1.380       .  A
C628        C629   1.380       .  A
C628        N675   1.432       .  S
C629        H631   1.081   1_545  S
N632        N633   1.324       .  A
N632        C636   1.349       .  A
N633        C634   1.347       .  A
N633       Cu859   2.081   1_545  S
C634        H637   1.082       .  S
C634        C635   1.380       .  A
C635        C636   1.381       .  A
C635        N671   1.433       .  S
C636        H638   1.082   1_655  S
C639        C641   1.544       .  S
C639        C643   1.537       .  S
C639        C642   1.543       .  S
C639        C700   1.534       .  S
C640        C644   1.550       .  S
C640        C646   1.540       .  S
C640        C645   1.536       .  S
C640        C685   1.534       .  S
C641        C649   1.382       .  A
C642        C653   1.383       .  A
C643        C657   1.377       .  A
C644        C647   1.384       .  A
C645        C651   1.378       .  A
C646        C654   1.381       .  A
C647        H660   1.082       .  S
N648        C649   1.355       .  A
C649        H650   1.082       .  S
C651        H661   1.083       .  S
N652        C653   1.356       .  A
C653        H659   1.082       .  S
C654        H656   1.082       .  S
N655        C657   1.354       .  A
C657        H658   1.083       .  S
C662        C664   1.548       .  S
C662        C666   1.545       .  S
C662        C665   1.538       .  S
C662        C688   1.535       .  S
C663        C667   1.547       .  S
C663        C669   1.538       .  S
C663        C668   1.540       .  S
C663        C697   1.534       .  S
C664        C672   1.383       .  A
C664        C667   1.397       .  A
C665        C676   1.379       .  A
C665        C668   1.391       .  A
C666        C680   1.385       .  A
C666        C669   1.396       .  A
C667        C670   1.385       .  A
C668        C674   1.383       .  A
C669        C677   1.379       .  A
C670        N671   1.356       .  A
C670        H683   1.082       .  S
N671        C672   1.355       .  A
C672        H673   1.082       .  S
C674        N675   1.356       .  A
C674        H684   1.082       .  S
N675        C676   1.356       .  A
C676        H682   1.083       .  S
C677        N678   1.354       .  A
C677        H679   1.083       .  S
N678        C680   1.356       .  A
C680        H681   1.081       .  S
C685        C686   1.407       .  A
C685        C690   1.417       .  A
C686        H691   1.082       .  S
C686        C687   1.396       .  A
C687        C688   1.417       .  A
C687        C694   1.446       .  S
C688        C689   1.408       .  A
C689        H692   1.079       .  S
C689        C690   1.404       .  A
C690        C693   1.444       .  S
C693        N695   1.158       .  T
C694        N696   1.157       .  T
C697        C698   1.406       .  A
C697        C702   1.417       .  A
C698        H703   1.080       .  S
C698        C699   1.400       .  A
C699        C700   1.418       .  A
C699        C706   1.445       .  S
C700        C701   1.408       .  A
C701        H704   1.081       .  S
C701        C702   1.400       .  A
C702        C705   1.445       .  S
C705        N707   1.157       .  T
C706        N708   1.158       .  T
N709        N710   1.325       .  A
N709        C713   1.346       .  A
N709       Cu717   2.081       .  S
N710        C711   1.347       .  A
C711        H714   1.081   1_655  S
C711        C830   1.378       .  A
C712        C829   1.378       .  A
C712        C831   1.379       .  A
C712        N773   1.428       .  S
C713        H715   1.082       .  S
C713        C830   1.379       .  A
Cu718       N720   2.086       .  S
N719        N838   1.325       .  A
N719        C723   1.346       .  A
N720        N837   1.325       .  A
N720        C721   1.348       .  A
C721        H724   1.082       .  S
C721        C722   1.380       .  A
C722        C841   1.378   1_556  A
C722        N770   1.430       .  S
C723        H725   1.082       .  S
C723        C840   1.378       .  A
N726        N845   1.325       .  A
N726        C730   1.348       .  A
N727        N844   1.325   1_554  A
N727        C728   1.348       .  A
C728        H849   1.082       .  S
C728        C729   1.379   1_554  A
C729        C848   1.381       .  A
C729        N766   1.432       .  S
C730        H850   1.082       .  S
C730        C847   1.381       .  A
H731        C846   1.082       .  S
H732        C848   1.082       .  S
N733        N734   1.325       .  A
N733        C737   1.347       .  A
N733       Cu741   2.081       .  S
N734        C735   1.349       .  A
C735        H738   1.082       .  S
C735        C736   1.380       .  A
C736        C737   1.378       .  A
C736        N796   1.431       .  S
C737        H739   1.082       .  S
Cu742       N744   2.086       .  S
N743        N744   1.326       .  A
N743        C747   1.349       .  A
N744        C745   1.347       .  A
C745        H748   1.082       .  S
C745        C746   1.380       .  A
C746        C747   1.380       .  A
C746        N793   1.432       .  S
C747        H749   1.081       .  S
N750        N751   1.324       .  A
N750        C754   1.349       .  A
N751        C752   1.347       .  A
C752        H755   1.082       .  S
C752        C753   1.380       .  A
C753        C754   1.381       .  A
C753        N789   1.433       .  S
C754        H756   1.082   1_655  S
C757        C759   1.544       .  S
C757        C761   1.537       .  S
C757        C760   1.543       .  S
C757        C818   1.534       .  S
C758        C762   1.550       .  S
C758        C764   1.540       .  S
C758        C763   1.536       .  S
C758        C803   1.534       .  S
C759        C767   1.382       .  A
C759        C880   1.396   1_554  A
C760        C771   1.383       .  A
C760        C881   1.393   1_554  A
C761        C775   1.377       .  A
C761        C882   1.394   1_554  A
C762        C877   1.396       .  A
C762        C765   1.384       .  A
C763        C878   1.393       .  A
C763        C769   1.378       .  A
C764        C879   1.394       .  A
C764        C772   1.381       .  A
C765        N884   1.355       .  A
C765        H778   1.082       .  S
N766        C883   1.355       .  A
N766        C767   1.355   1_556  A
C767        H768   1.082       .  S
C769        N888   1.354       .  A
C769        H779   1.083       .  S
N770        C887   1.354       .  A
N770        C771   1.356   1_556  A
C771        H777   1.082       .  S
C772        N891   1.356       .  A
C772        H774   1.082       .  S
N773        C890   1.356   1_554  A
N773        C775   1.354       .  A
C775        H776   1.083       .  S
C780        C782   1.548       .  S
C780        C784   1.545       .  S
C780        C783   1.538       .  S
C780        C806   1.535       .  S
C781        C785   1.547       .  S
C781        C787   1.538       .  S
C781        C786   1.540       .  S
C781        C815   1.534       .  S
C782        C790   1.383       .  A
C782        C785   1.397       .  A
C783        C794   1.379       .  A
C783        C786   1.391       .  A
C784        C798   1.385       .  A
C784        C787   1.396       .  A
C785        C788   1.385       .  A
C786        C792   1.383       .  A
C787        C795   1.379       .  A
C788        N789   1.356       .  A
C788        H801   1.082       .  S
N789        C790   1.355       .  A
C790        H791   1.082       .  S
C792        N793   1.356       .  A
C792        H802   1.082       .  S
N793        C794   1.356       .  A
C794        H800   1.083       .  S
C795        N796   1.354       .  A
C795        H797   1.083       .  S
N796        C798   1.356       .  A
C798        H799   1.081       .  S
C803        C804   1.407       .  A
C803        C808   1.417       .  A
C804        H809   1.082       .  S
C804        C805   1.396       .  A
C805        C806   1.417       .  A
C805        C812   1.446       .  S
C806        C807   1.408       .  A
C807        H810   1.079       .  S
C807        C808   1.404       .  A
C808        C811   1.444       .  S
C811        N813   1.158       .  T
C812        N814   1.157       .  T
C815        C816   1.406       .  A
C815        C820   1.417       .  A
C816        H821   1.080       .  S
C816        C817   1.400       .  A
C817        C818   1.418       .  A
C817        C824   1.445       .  S
C818        C819   1.408       .  A
C819        H822   1.081       .  S
C819        C820   1.400       .  A
C820        C823   1.445       .  S
C823        N825   1.157       .  T
C824        N826   1.158       .  T
N827        N828   1.325       .  A
N827        C831   1.346       .  A
N827       Cu835   2.081       .  S
N828        C829   1.347       .  A
C829        H832   1.081   1_655  S
C830        N891   1.428       .  S
C831        H833   1.082       .  S
Cu836       N838   2.086       .  S
N837        C841   1.346   1_556  A
N838        C839   1.348       .  A
C839        H842   1.082       .  S
C839        C840   1.380       .  A
C840        N888   1.430       .  S
C841        H843   1.082       .  S
N844        C848   1.348       .  A
N845        C846   1.348       .  A
C846        C847   1.379       .  A
C847        N884   1.432       .  S
N851        N852   1.325       .  A
N851        C855   1.347       .  A
N851       Cu859   2.081       .  S
N852        C853   1.349       .  A
C853        H856   1.082       .  S
C853        C854   1.380       .  A
C854        C855   1.378       .  A
C854        N914   1.431       .  S
C855        H857   1.082       .  S
Cu860       N862   2.086       .  S
N861        N862   1.326       .  A
N861        C865   1.349       .  A
N862        C863   1.347       .  A
C863        H866   1.082       .  S
C863        C864   1.380       .  A
C864        C865   1.380       .  A
C864        N911   1.432       .  S
C865        H867   1.081       .  S
N868        N869   1.324       .  A
N868        C872   1.349       .  A
N869        C870   1.347       .  A
C870        H873   1.082       .  S
C870        C871   1.380       .  A
C871        C872   1.381       .  A
C871        N907   1.433       .  S
C872        H874   1.082   1_655  S
C875        C877   1.544       .  S
C875        C879   1.537       .  S
C875        C878   1.543       .  S
C875        C936   1.534       .  S
C876        C880   1.550       .  S
C876        C882   1.540       .  S
C876        C881   1.536       .  S
C876        C921   1.534       .  S
C877        C885   1.382       .  A
C878        C889   1.383       .  A
C879        C893   1.377       .  A
C880        C883   1.384       .  A
C881        C887   1.378       .  A
C882        C890   1.381       .  A
C883        H896   1.082       .  S
N884        C885   1.355       .  A
C885        H886   1.082       .  S
C887        H897   1.083       .  S
N888        C889   1.356       .  A
C889        H895   1.082       .  S
C890        H892   1.082       .  S
N891        C893   1.354       .  A
C893        H894   1.083       .  S
C898        C900   1.548       .  S
C898        C902   1.545       .  S
C898        C901   1.538       .  S
C898        C924   1.535       .  S
C899        C903   1.547       .  S
C899        C905   1.538       .  S
C899        C904   1.540       .  S
C899        C933   1.534       .  S
C900        C908   1.383       .  A
C900        C903   1.397       .  A
C901        C912   1.379       .  A
C901        C904   1.391       .  A
C902        C916   1.385       .  A
C902        C905   1.396       .  A
C903        C906   1.385       .  A
C904        C910   1.383       .  A
C905        C913   1.379       .  A
C906        N907   1.356       .  A
C906        H919   1.082       .  S
N907        C908   1.355       .  A
C908        H909   1.082       .  S
C910        N911   1.356       .  A
C910        H920   1.082       .  S
N911        C912   1.356       .  A
C912        H918   1.083       .  S
C913        N914   1.354       .  A
C913        H915   1.083       .  S
N914        C916   1.356       .  A
C916        H917   1.081       .  S
C921        C922   1.407       .  A
C921        C926   1.417       .  A
C922        H927   1.082       .  S
C922        C923   1.396       .  A
C923        C924   1.417       .  A
C923        C930   1.446       .  S
C924        C925   1.408       .  A
C925        H928   1.079       .  S
C925        C926   1.404       .  A
C926        C929   1.444       .  S
C929        N931   1.158       .  T
C930        N932   1.157       .  T
C933        C934   1.406       .  A
C933        C938   1.417       .  A
C934        H939   1.080       .  S
C934        C935   1.400       .  A
C935        C936   1.418       .  A
C935        C942   1.445       .  S
C936        C937   1.408       .  A
C937        H940   1.081       .  S
C937        C938   1.400       .  A
C938        C941   1.445       .  S
C941        N943   1.157       .  T
C942        N944   1.158       .  T
