geometry optimzed in LAMMPS
_audit_creation_date              2020-11-30 
_audit_creation_method            'lammps2cif' 
_symmetry_space_group_name_H-M    'P1' 
_symmetry_Int_Tables_number       1 
_symmetry_cell_setting            triclinic 
loop_ 
_symmetry_equiv_pos_as_xyz 
  x,y,z 
_cell_length_a                    48.8335763 
_cell_length_b                    48.356281342059084 
_cell_length_c                    44.182428724448606 
_cell_angle_alpha                 90.34373760032668 
_cell_angle_beta                  90.19850859644876 
_cell_angle_gamma                 89.95847130767126 
loop_ 
_atom_site_label 
_atom_site_type_symbol 
_atom_site_fract_x 
_atom_site_fract_y 
_atom_site_fract_z 
_atom_site_charge 
C1          C  0.67871646  0.67819947  0.25004879     0.80000
N2          N  0.68936425  0.68754250  0.22367207    -0.78300
C3          C  0.70935277  0.70706740  0.22370807     0.82500
N4          N  0.71866636  0.71725537  0.25056590    -0.78200
C5          C  0.70820488  0.70812573  0.27715793     0.82600
N6          N  0.68826246  0.68860008  0.27665777    -0.80000
C7          C  0.81107699  0.80972608  0.00103056     0.80000
N8          N  0.80195993  0.79916643  0.02760994    -0.78300
C9          C  0.78205416  0.77951741  0.02789455     0.82500
N10         N  0.77125034  0.77052281  0.00120834    -0.78200
C11         C  0.78011280  0.78089886  0.47448284     0.82600
N12         N  0.80003284  0.80045791  0.47463696    -0.80000
C13         C  0.68002522  0.31047571  0.25007289     0.80000
N14         N  0.68949208  0.30007250  0.27664539    -0.78300
C15         C  0.70994582  0.28102924  0.27698530     0.82500
N16         N  0.72085170  0.27219475  0.25039787    -0.78200
C17         C  0.71155446  0.28225044  0.22361698     0.82600
N18         N  0.69118127  0.30145081  0.22361582    -0.80000
C19         C  0.80932399  0.17615216  0.99983464     0.80000
N20         N  0.79936017  0.18618718  0.47334133    -0.78300
C21         C  0.77933032  0.20568432  0.47318507     0.82500
N22         N  0.76940703  0.21543363  0.99991012    -0.78200
C23         C  0.77930177  0.20571159  0.02661960     0.82600
N24         N  0.79916642  0.18602459  0.02637597    -0.80000
C25         C  0.31655860  0.68405463  0.25000959     0.80000
N26         N  0.30687372  0.69448323  0.27650051    -0.78300
C27         C  0.28679012  0.71393387  0.27675880     0.82500
N28         N  0.27638107  0.72301001  0.25002865    -0.78200
C29         C  0.28573566  0.71266525  0.22333271     0.82600
N30         N  0.30574956  0.69314369  0.22349384    -0.80000
C31         C  0.17593321  0.80602827  0.50044100     0.80000
N32         N  0.18578802  0.79600776  0.02695861    -0.78300
C33         C  0.20543186  0.77612608  0.02721442     0.82500
N34         N  0.21548254  0.76637433  0.50054379    -0.78200
C35         C  0.20603205  0.77643194  0.47377213     0.82600
N36         N  0.18623207  0.79618808  0.47398115    -0.80000
O37         O  0.96625348  0.96419046  0.47410728    -0.73100
O38         O  0.02435559  0.02294476  0.47455841    -0.74100
O39         O  0.02419441  0.96403510  0.47464108    -0.62700
O40         O  0.96627801  0.02301396  0.47429590    -0.71200
O41         O  0.96651563  0.02353559  0.02446855    -0.70700
O42         O  0.02408798  0.96436854  0.02481040    -0.62000
O43         O  0.02449269  0.02326889  0.02472015    -0.74500
O44         O  0.96610073  0.96475949  0.02427445    -0.73300
Cu45       Cu  0.99529675  0.99355125  0.47266261     1.04600
Cu46       Cu  0.99530860  0.99398804  0.02630477     1.04300
C47         C  0.95701986  0.95508725  0.99917465     0.93000
C48         C  0.03351186  0.03257916  0.99963074     0.92200
C49         C  0.03311498  0.95464072  0.99980376     0.84300
C50         C  0.95727178  0.03269406  0.99935883     0.90600
O51         O  0.52451718  0.52304603  0.22509110    -0.73100
O52         O  0.46583387  0.46547988  0.22459515    -0.74100
O53         O  0.46660325  0.52412756  0.22502929    -0.62700
O54         O  0.52391134  0.46453103  0.22501930    -0.71200
O55         O  0.52437314  0.46516861  0.27518813    -0.70700
O56         O  0.46630424  0.52389993  0.27519511    -0.62000
O57         O  0.46626703  0.46524916  0.27477309    -0.74500
O58         O  0.52423672  0.52370422  0.27527621    -0.73300
Cu59       Cu  0.49519753  0.49427763  0.22319496     1.04600
Cu60       Cu  0.49526995  0.49448605  0.27685711     1.04300
C61         C  0.53362689  0.53258315  0.25018787     0.93000
C62         C  0.45679973  0.45613588  0.24961825     0.92200
C63         C  0.45744872  0.53354836  0.25013664     0.84300
C64         C  0.53340292  0.45556082  0.25012403     0.90600
C65         C  0.17752236  0.18023186  0.49912816     0.80000
N66         N  0.18786046  0.18979583  0.47264756    -0.78300
C67         C  0.20809588  0.20910464  0.47255443     0.82500
N68         N  0.21799123  0.21881634  0.49935429    -0.78200
C69         C  0.20790185  0.20952571  0.02602560     0.82600
N70         N  0.18767636  0.19023561  0.02568853    -0.80000
C71         C  0.31367566  0.30841862  0.25007552     0.80000
N72         N  0.30310914  0.29885873  0.22358195    -0.78300
C73         C  0.28281271  0.27972929  0.22326821     0.82500
N74         N  0.27301011  0.27012913  0.24997032    -0.78200
C75         C  0.28334898  0.27943369  0.27677117     0.82600
N76         N  0.30370010  0.29859802  0.27660599    -0.80000
C77         C  0.21843579  0.22073923  0.33326013    -0.18000
C78         C  0.20794058  0.21089875  0.36056027    -0.20200
C79         C  0.21877225  0.22012181  0.38828897     0.20400
C80         C  0.24034032  0.23952792  0.38852570    -0.03100
C81         C  0.25094530  0.24945693  0.36096024    -0.06200
C82         C  0.23995412  0.23996028  0.33322281     0.20700
C83         C  0.27254025  0.26883028  0.36117459     0.18900
C84         C  0.28327428  0.27816364  0.38892096    -0.17700
C85         C  0.27276704  0.26832575  0.41623622    -0.19900
C86         C  0.25133779  0.24899239  0.41627161     0.20400
C87         C  0.24073936  0.23897287  0.44355835    -0.32900
C88         C  0.21923573  0.21955541  0.44356862     0.01100
C89         C  0.20839820  0.21026354  0.41574569    -0.24200
C90         C  0.25065565  0.24979677  0.30591911    -0.28800
C91         C  0.27225423  0.26908052  0.30584270     0.06700
C92         C  0.28303876  0.27850493  0.33366903    -0.27500
H93         H  0.20973988  0.21327310  0.31215306     0.11500
H94         H  0.19135048  0.19603380  0.35997925     0.12600
H95         H  0.29983665  0.29306029  0.38950143     0.11700
H96         H  0.28142694  0.27582671  0.43734775     0.10900
H97         H  0.24931405  0.24633378  0.46477797     0.16300
H98         H  0.19182841  0.19536224  0.41536943     0.12200
H99         H  0.24208373  0.24238392  0.28472044     0.15100
H100        H  0.29963738  0.29337398  0.33400592     0.14800
C101        C  0.20626474  0.21284940  0.13787574    -0.18000
C102        C  0.21666885  0.22266424  0.16542307    -0.20200
C103        C  0.23859605  0.24138886  0.16596365     0.20400
C104        C  0.25001349  0.25050841  0.13847591    -0.03100
C105        C  0.23951128  0.24059493  0.11066683    -0.06200
C106        C  0.21760307  0.22159749  0.11041623     0.20700
C107        C  0.25099721  0.24959157  0.08317203     0.18900
C108        C  0.27275581  0.26854810  0.08371294    -0.17700
C109        C  0.28315647  0.27838576  0.11128188    -0.19900
C110        C  0.27199124  0.26941596  0.13875783     0.20400
C111        C  0.28249991  0.27891555  0.16649094    -0.32900
C112        C  0.27139629  0.26973619  0.19405714     0.01100
C113        C  0.24934728  0.25102615  0.19352441    -0.24200
C114        C  0.20743494  0.21160184  0.08274850    -0.28800
C115        C  0.21880041  0.22033250  0.05517636     0.06700
C116        C  0.24058395  0.23942877  0.05563972    -0.27500
H117        H  0.18938058  0.19831814  0.13805559     0.11500
H118        H  0.20762760  0.21552161  0.18631878     0.12600
H119        H  0.28178046  0.27570765  0.06281480     0.11700
H120        H  0.30001712  0.29294831  0.11111167     0.10900
H121        H  0.29945677  0.29337478  0.16652203     0.16300
H122        H  0.24052014  0.24388092  0.21454166     0.12200
H123        H  0.19061984  0.19697735  0.08277227     0.15100
H124        H  0.24954575  0.24636133  0.03460639     0.14800
C125        C  0.39163370  0.39558728  0.19472039    -0.18000
C126        C  0.37185315  0.37468524  0.19479805    -0.20200
C127        C  0.36361518  0.36263014  0.22211660     0.20400
C128        C  0.37532561  0.37176177  0.24963041    -0.03100
C129        C  0.39526502  0.39283180  0.24955534    -0.06200
C130        C  0.40350265  0.40474232  0.22196336     0.20700
C131        C  0.40695646  0.40193782  0.27710125     0.18900
C132        C  0.39860308  0.39002060  0.30441626    -0.17700
C133        C  0.37883637  0.36915266  0.30449020    -0.19900
C134        C  0.36710402  0.35988310  0.27724514     0.20400
C135        C  0.34719834  0.33904474  0.27720068    -0.32900
C136        C  0.33530117  0.32987837  0.24990174     0.01100
C137        C  0.34377007  0.34172174  0.22241972    -0.24200
C138        C  0.42351915  0.42551488  0.22211126    -0.28800
C139        C  0.43538353  0.43456101  0.24950962     0.06700
C140        C  0.42687074  0.42273026  0.27689363    -0.27500
H141        H  0.39768450  0.40455585  0.17335070     0.11500
H142        H  0.36299192  0.36794439  0.17347805     0.12600
H143        H  0.40738833  0.39682507  0.32574898     0.11700
H144        H  0.37271187  0.36026634  0.32587399     0.10900
H145        H  0.34091214  0.33008118  0.29849838     0.16300
H146        H  0.33475770  0.33489754  0.20120120     0.12200
H147        H  0.42987575  0.43457429  0.20088522     0.15100
H148        H  0.43587432  0.42955459  0.29811978     0.14800
C149        C  0.11342784  0.11942993  0.05424806    -0.18000
C150        C  0.09341785  0.09874242  0.05434817    -0.20200
C151        C  0.08384350  0.08728415  0.02703923     0.20400
C152        C  0.09434822  0.09696411  0.49933883    -0.03100
C153        C  0.11455143  0.11785545  0.49924194    -0.06200
C154        C  0.12421113  0.12902459  0.02684297     0.20700
C155        C  0.12516943  0.12743030  0.47155529     0.18900
C156        C  0.11533188  0.11622786  0.44422895    -0.17700
C157        C  0.09530746  0.09554790  0.44432332    -0.19900
C158        C  0.08477965  0.08569559  0.47173989     0.20400
C159        C  0.06494159  0.06471807  0.47202667    -0.32900
C160        C  0.05450339  0.05475096  0.99955721     0.01100
C161        C  0.06403670  0.06626478  0.02697413    -0.24200
C162        C  0.14458823  0.14945919  0.02659925    -0.28800
C163        C  0.15554435  0.15897769  0.99910472     0.06700
C164        C  0.14553819  0.14790157  0.47165713    -0.27500
H165        H  0.12056786  0.12784602  0.07564726     0.11500
H166        H  0.08551173  0.09161680  0.07581113     0.12600
H167        H  0.12321097  0.12338328  0.42276539     0.11700
H168        H  0.08813101  0.08716903  0.42292196     0.10900
H169        H  0.05769683  0.05610922  0.45075172     0.16300
H170        H  0.05606922  0.05887922  0.04831417     0.12200
H171        H  0.15198324  0.15782645  0.04792327     0.15100
H172        H  0.15369546  0.15504159  0.45030666     0.14800
C173        C  0.09559425  0.89208625  0.05520007    -0.18000
C174        C  0.11559831  0.87137435  0.05527231    -0.20200
C175        C  0.12483883  0.85979015  0.02795348     0.20400
C176        C  0.11369073  0.86900696  0.50029310    -0.03100
C177        C  0.09351365  0.88991187  0.50021762    -0.06200
C178        C  0.08452203  0.90157762  0.02780506     0.20700
C179        C  0.08246973  0.89923093  0.47254108     0.18900
C180        C  0.09146066  0.88739975  0.44524908    -0.17700
C181        C  0.11146498  0.86669767  0.44532474    -0.19900
C182        C  0.12278299  0.85746037  0.47269703     0.20400
C183        C  0.14306916  0.83693734  0.47292005    -0.32900
C184        C  0.15440523  0.82767743  0.00039590     0.01100
C185        C  0.14507684  0.83921360  0.02782956    -0.24200
C186        C  0.06474529  0.92262177  0.02751158    -0.28800
C187        C  0.05385827  0.93227335  0.99998127     0.06700
C188        C  0.06275054  0.92031543  0.47260364    -0.27500
H189        H  0.08886735  0.90077335  0.07658202     0.11500
H190        H  0.12391189  0.86447561  0.07670973     0.12600
H191        H  0.08311411  0.89425960  0.42381321     0.11700
H192        H  0.11816151  0.85797726  0.42394606     0.10900
H193        H  0.14998435  0.82819745  0.45162754     0.16300
H194        H  0.15361642  0.83230060  0.04916186     0.12200
H195        H  0.05796444  0.93158170  0.04875060     0.15100
H196        H  0.05437802  0.92744418  0.45127561     0.14800
C197        C  0.39456865  0.59629227  0.30510500    -0.18000
C198        C  0.37505114  0.61747631  0.30508782    -0.20200
C199        C  0.36654568  0.62948630  0.27778124     0.20400
C200        C  0.37783961  0.62010857  0.25022261    -0.03100
C201        C  0.39753951  0.59874033  0.25023955    -0.06200
C202        C  0.40590708  0.58676804  0.27781681     0.20700
C203        C  0.40877640  0.58931995  0.22266224     0.18900
C204        C  0.40032809  0.60138167  0.19537076    -0.17700
C205        C  0.38077869  0.62252205  0.19535267    -0.19900
C206        C  0.36937772  0.63197697  0.22262851     0.20400
C207        C  0.34956164  0.65297165  0.22274667    -0.32900
C208        C  0.33804430  0.66236058  0.25010971     0.01100
C209        C  0.34682558  0.65057252  0.27755872    -0.24200
C210        C  0.42542060  0.56546717  0.27762162    -0.28800
C211        C  0.43667782  0.55589128  0.25019728     0.06700
C212        C  0.42822498  0.56798358  0.22282079    -0.27500
H213        H  0.40076671  0.58732162  0.32647706     0.11500
H214        H  0.36655656  0.62442679  0.32644396     0.12600
H215        H  0.40878939  0.59440654  0.17400942     0.11700
H216        H  0.37451988  0.63143572  0.17397309     0.10900
H217        H  0.34307184  0.66191179  0.20145433     0.16300
H218        H  0.33812400  0.65755679  0.29880754     0.12200
H219        H  0.43179569  0.55633230  0.29885803     0.15100
H220        H  0.43682419  0.56085745  0.20157479     0.14800
C221        C  0.23859692  0.78361539  0.16231161    -0.18000
C222        C  0.22713987  0.79232867  0.13493659    -0.20200
C223        C  0.22702425  0.77471604  0.10958258     0.20400
C224        C  0.23853004  0.74803170  0.11177704    -0.03100
C225        C  0.25007493  0.73922429  0.13942025    -0.06200
C226        C  0.25009910  0.75712513  0.16478548     0.20700
C227        C  0.26171999  0.71259560  0.14160969     0.18900
C228        C  0.26133360  0.69488095  0.11632632    -0.17700
C229        C  0.24993141  0.70363038  0.08890169    -0.19900
C230        C  0.23869794  0.73024132  0.08631394     0.20400
C231        C  0.22783786  0.73946675  0.05868655    -0.32900
C232        C  0.21642657  0.76608632  0.05636530     0.01100
C233        C  0.21583711  0.78344191  0.08200922    -0.24200
C234        C  0.26168265  0.74826899  0.19215127    -0.28800
C235        C  0.27360774  0.72188917  0.19439923     0.06700
C236        C  0.27359148  0.70418952  0.16900882    -0.27500
H237        H  0.23850422  0.79761817  0.18153999     0.11500
H238        H  0.21844101  0.81291145  0.13356649     0.12600
H239        H  0.27002174  0.67429485  0.11770350     0.11700
H240        H  0.25006301  0.68964710  0.06965756     0.10900
H241        H  0.22813097  0.72591514  0.03905915     0.16300
H242        H  0.20720175  0.80404698  0.08034227     0.12200
H243        H  0.26172374  0.76203757  0.21160347     0.15100
H244        H  0.28250816  0.68370937  0.17068514     0.14800
C245        C  0.27379537  0.72121243  0.41618931    -0.18000
C246        C  0.28535936  0.71289454  0.38868522    -0.20200
C247        C  0.27486963  0.72280859  0.36119547     0.20400
C248        C  0.25254360  0.74132786  0.36139093    -0.03100
C249        C  0.24088534  0.74974032  0.38915131    -0.06200
C250        C  0.25155837  0.73960638  0.41666534     0.20700
C251        C  0.21857822  0.76827920  0.38934772     0.18900
C252        C  0.20808385  0.77819288  0.36185619    -0.17700
C253        C  0.21958708  0.76979986  0.33434688    -0.19900
C254        C  0.24181274  0.75139001  0.33387521     0.20000
C255        C  0.25335290  0.74274296  0.30636859    -0.32900
C256        C  0.27548534  0.72406236  0.30592679     0.01100
C257        C  0.28620437  0.71435961  0.33353626    -0.24200
C258        C  0.23990619  0.74810868  0.44417360    -0.28800
C259        C  0.21775105  0.76675177  0.44461738     0.06700
C260        C  0.20719753  0.77665889  0.41700798    -0.27500
H261        H  0.28225454  0.71325659  0.43709939     0.11500
H262        H  0.30249629  0.69864590  0.38891699     0.12600
H263        H  0.19095039  0.79244599  0.36162486     0.11700
H264        H  0.21108440  0.77770032  0.31343182     0.10900
H265        H  0.24486003  0.75037258  0.28531863     0.16300
H266        H  0.30324510  0.69998331  0.33358821     0.12200
H267        H  0.24829030  0.74035796  0.46522199     0.15100
H268        H  0.19013573  0.79100961  0.41694959     0.14800
C269        C  0.89874353  0.09970478  0.05412995    -0.18000
C270        C  0.87788927  0.11954646  0.05422708    -0.20200
C271        C  0.86511114  0.12734963  0.02708543     0.20400
C272        C  0.87354819  0.11518426  0.49954374    -0.03100
C273        C  0.89458879  0.09515700  0.49944435    -0.06200
C274        C  0.90714670  0.08731301  0.02689494     0.20700
C275        C  0.90291897  0.08288745  0.47191462     0.18900
C276        C  0.89025455  0.09081291  0.44475679    -0.17700
C277        C  0.86940867  0.11065690  0.44485753    -0.19900
C278        C  0.86089785  0.12292724  0.47211386     0.20400
C279        C  0.83995720  0.14278030  0.47239323    -0.32900
C280        C  0.83135294  0.15501044  0.99976490     0.01100
C281        C  0.84407008  0.14710099  0.02702860    -0.24200
C282        C  0.92773398  0.06707522  0.02666339    -0.28800
C283        C  0.93598022  0.05452920  0.99933723     0.06700
C284        C  0.92359651  0.06275063  0.47202696    -0.27500
H285        H  0.90822333  0.09395892  0.07539455     0.11500
H286        H  0.87170354  0.12874184  0.07555720     0.12600
H287        H  0.89640958  0.08158932  0.42343056     0.11700
H288        H  0.85990435  0.11637753  0.42359865     0.10900
H289        H  0.83032161  0.14861333  0.45123471     0.16300
H290        H  0.83773527  0.15640025  0.04825994     0.12200
H291        H  0.93724409  0.06102451  0.04781997     0.15100
H292        H  0.92980498  0.05326098  0.45084709     0.14800
C293        C  0.61152697  0.36734704  0.19559715    -0.18000
C294        C  0.59119376  0.38774222  0.19561525    -0.20200
C295        C  0.58329987  0.40064921  0.22275106     0.20400
C296        C  0.59593990  0.39286729  0.25017542    -0.03100
C297        C  0.61644333  0.37225515  0.25016045    -0.06200
C298        C  0.62432952  0.35951313  0.22271891     0.20700
C299        C  0.62909734  0.36449450  0.27757468     0.18900
C300        C  0.62118707  0.37738662  0.30472238    -0.17700
C301        C  0.60091366  0.39784071  0.30473222    -0.19900
C302        C  0.58815095  0.40570126  0.27760027     0.20400
C303        C  0.56773523  0.42613696  0.27742656    -0.32900
C304        C  0.55498367  0.43399299  0.25016726     0.01100
C305        C  0.56298246  0.42116814  0.22291754    -0.24200
C306        C  0.64497627  0.33929510  0.22283390    -0.28800
C307        C  0.65783912  0.33151228  0.25006569     0.06700
C308        C  0.64956834  0.34413180  0.27736776    -0.27500
H309        H  0.61729693  0.35774901  0.17433572     0.11500
H310        H  0.58166239  0.39345453  0.17436741     0.12600
H311        H  0.63073501  0.37169233  0.32596684     0.11700
H312        H  0.59520502  0.40750545  0.32598002     0.10900
H313        H  0.56183905  0.43595723  0.29853860     0.16300
H314        H  0.55330876  0.42704080  0.20179116     0.12200
H315        H  0.65100483  0.32964725  0.20167727     0.15100
H316        H  0.65928874  0.33839129  0.29850951     0.14800
C317        C  0.76550738  0.19703165  0.13700166    -0.18000
C318        C  0.75651137  0.20796055  0.16462434    -0.20200
C319        C  0.74484134  0.23447452  0.16601795     0.20400
C320        C  0.74231040  0.25018595  0.13934566    -0.03100
C321        C  0.75141897  0.23916353  0.11146844    -0.06200
C322        C  0.76303391  0.21244384  0.11031363     0.20700
C323        C  0.74878187  0.25482997  0.08476815     0.18900
C324        C  0.73745404  0.28148576  0.08623733    -0.17700
C325        C  0.72836520  0.29237374  0.11384298    -0.19900
C326        C  0.73047581  0.27681444  0.14046145     0.20400
C327        C  0.72069481  0.28728577  0.16808762    -0.32900
C328        C  0.72288656  0.27163493  0.19472607     0.01100
C329        C  0.73535319  0.24539160  0.19354282    -0.24200
C330        C  0.77198142  0.20162276  0.08251635    -0.28800
C331        C  0.76924636  0.21703563  0.05575329     0.06700
C332        C  0.75752901  0.24360125  0.05708113    -0.27500
H333        H  0.77436905  0.17648029  0.13650834     0.11500
H334        H  0.75856654  0.19561590  0.18488627     0.12600
H335        H  0.73546583  0.29385928  0.06599018     0.11700
H336        H  0.71949842  0.31292153  0.11433236     0.10900
H337        H  0.71135558  0.30762672  0.16884621     0.16300
H338        H  0.73705351  0.23312832  0.21391804     0.12200
H339        H  0.78091940  0.18109933  0.08169309     0.15100
H340        H  0.75560480  0.25573575  0.03663717     0.14800
C341        C  0.79326586  0.22796239  0.36540583    -0.18000
C342        C  0.78364721  0.23868535  0.33802740    -0.20200
C343        C  0.75677247  0.24875778  0.33564495     0.20400
C344        C  0.73943950  0.24813761  0.36113025    -0.03100
C345        C  0.74917533  0.23738287  0.38878967    -0.06200
C346        C  0.77620282  0.22720210  0.39087826     0.20700
C347        C  0.73191415  0.23692707  0.41434742     0.18900
C348        C  0.70496806  0.24680115  0.41188687    -0.17700
C349        C  0.69529867  0.25739432  0.38445044    -0.19900
C350        C  0.71241477  0.25833230  0.35902327     0.20400
C351        C  0.70299962  0.26928579  0.33154885    -0.32900
C352        C  0.72011107  0.26981998  0.30600991     0.01100
C353        C  0.74695016  0.25943871  0.30823227    -0.24200
C354        C  0.78574275  0.21658186  0.41843086    -0.28800
C355        C  0.76882052  0.21647109  0.44412657     0.06700
C356        C  0.74192810  0.22670521  0.44192026    -0.27500
H357        H  0.81409789  0.22030033  0.36667081     0.11500
H358        H  0.79722797  0.23908131  0.31870151     0.12600
H359        H  0.69140025  0.24643833  0.43122347     0.11700
H360        H  0.67444231  0.26498403  0.38316097     0.10900
H361        H  0.68221809  0.27706854  0.32993513     0.16300
H362        H  0.76030684  0.25994949  0.28870056     0.12200
H363        H  0.80654432  0.20884455  0.42001907     0.15100
H364        H  0.72871293  0.22643505  0.46157580     0.14800
C365        C  0.89777128  0.88783668  0.44491424    -0.18000
C366        C  0.87729956  0.86759781  0.44520971    -0.20200
C367        C  0.86542852  0.85938130  0.47261908     0.20400
C368        C  0.87439672  0.87152200  0.00001205    -0.03100
C369        C  0.89501471  0.89196208  0.99971179    -0.06200
C370        C  0.90668867  0.90022930  0.47202254     0.20700
C371        C  0.90383857  0.90419111  0.02712147     0.18900
C372        C  0.89213157  0.89582821  0.05453280    -0.17700
C373        C  0.87174048  0.87556860  0.05483193    -0.19900
C374        C  0.86270559  0.86333974  0.02771970     0.20400
C375        C  0.84213831  0.84313902  0.02788391    -0.32900
C376        C  0.83293074  0.83100360  0.00068705     0.01100
C377        C  0.84473443  0.83928545  0.47311948    -0.24200
C378        C  0.92696521  0.92080828  0.47194540    -0.28800
C379        C  0.93575010  0.93323034  0.99922044     0.06700
C380        C  0.92412274  0.92465857  0.02669350    -0.27500
H381        H  0.90655429  0.89387673  0.42346249     0.11500
H382        H  0.87069707  0.85841868  0.42397466     0.12600
H383        H  0.89870682  0.90501695  0.07577065     0.11700
H384        H  0.86298190  0.86950864  0.07628880     0.10900
H385        H  0.83320817  0.83701609  0.04924280     0.16300
H386        H  0.83792881  0.83004215  0.45198756     0.12200
H387        H  0.93586632  0.92714702  0.45064720     0.15100
H388        H  0.93073295  0.93403218  0.04783348     0.14800
C389        C  0.59963346  0.59087758  0.19527003    -0.18000
C390        C  0.61979897  0.61138311  0.19520327    -0.20200
C391        C  0.62816322  0.62398069  0.22239408     0.20400
C392        C  0.61608717  0.61587405  0.24991688    -0.03100
C393        C  0.59574542  0.59521250  0.24998362    -0.06200
C394        C  0.58749628  0.58267936  0.22251752     0.20700
C395        C  0.58369492  0.58710673  0.27752573     0.18900
C396        C  0.59201138  0.59972754  0.30470319    -0.17700
C397        C  0.61218486  0.62020172  0.30463460    -0.19900
C398        C  0.62435502  0.62836062  0.27739375     0.20400
C399        C  0.64471079  0.64872323  0.27720115    -0.32900
C400        C  0.65697218  0.65687763  0.24989126     0.01100
C401        C  0.64846245  0.64445218  0.22254595    -0.24200
C402        C  0.56723354  0.56220540  0.22277508    -0.28800
C403        C  0.55511128  0.55404278  0.25014141     0.06700
C404        C  0.56351108  0.56655958  0.27743031    -0.27500
H405        H  0.59352001  0.58143258  0.17399365     0.11500
H406        H  0.62888025  0.61736568  0.17388682     0.12600
H407        H  0.58292630  0.59374916  0.32601958     0.11700
H408        H  0.61830677  0.62963143  0.32591468     0.10900
H409        H  0.65098814  0.65818337  0.29841868     0.16300
H410        H  0.65773216  0.65053633  0.20135443     0.12200
H411        H  0.56094006  0.55261856  0.20162648     0.15100
H412        H  0.55425744  0.56043520  0.29862034     0.14800
C413        C  0.76705320  0.77265947  0.33518211    -0.18000
C414        C  0.77694227  0.78292165  0.36276007    -0.20200
C415        C  0.76754757  0.77201585  0.39018329     0.20400
C416        C  0.74782068  0.75072743  0.38987946    -0.03100
C417        C  0.73780531  0.74039833  0.36204448    -0.06200
C418        C  0.74758068  0.75134556  0.33459026     0.20700
C419        C  0.71815924  0.71903204  0.36170362     0.18900
C420        C  0.70859675  0.70828890  0.38914947    -0.17700
C421        C  0.71856944  0.71848942  0.41674892    -0.19900
C422        C  0.73824016  0.73963418  0.41734817     0.20400
C423        C  0.74863398  0.74972543  0.44490971    -0.32900
C424        C  0.76854815  0.77077262  0.44540248     0.01100
C425        C  0.77771848  0.78190162  0.41786912    -0.24200
C426        C  0.73782734  0.74074226  0.30701044    -0.28800
C427        C  0.71832487  0.71933870  0.30641759     0.06700
C428        C  0.70852436  0.70869108  0.33394210    -0.27500
H429        H  0.77471462  0.78132600  0.31430684     0.11500
H430        H  0.79206412  0.79931479  0.36263356     0.12600
H431        H  0.69347698  0.69189384  0.38927185     0.11700
H432        H  0.71097121  0.70976800  0.43762514     0.10900
H433        H  0.74134348  0.74099839  0.46592739     0.16300
H434        H  0.79297748  0.79817423  0.41787268     0.12200
H435        H  0.74548113  0.74920341  0.28601996     0.15100
H436        H  0.69348235  0.69221276  0.33385172     0.14800
C437        C  0.71854109  0.71951672  0.08451547    -0.18000
C438        C  0.70829872  0.70949531  0.11184300    -0.20200
C439        C  0.71971597  0.71816295  0.13949611     0.20400
C440        C  0.74177067  0.73699532  0.13963790    -0.03100
C441        C  0.75210924  0.74711743  0.11204775    -0.06200
C442        C  0.74035418  0.73839240  0.08439395     0.20700
C443        C  0.77405387  0.76608739  0.11216230     0.18900
C444        C  0.78561943  0.77455943  0.13982686    -0.17700
C445        C  0.77536879  0.76453204  0.16717602    -0.19900
C446        C  0.75339210  0.74584409  0.16732140     0.20400
C447        C  0.74278291  0.73595426  0.19465748    -0.32900
C448        C  0.72069416  0.71724898  0.19474496     0.01100
C449        C  0.70936972  0.70840586  0.16698184    -0.24200
C450        C  0.75042845  0.74884458  0.05709546    -0.28800
C451        C  0.77208060  0.76806571  0.05694193     0.06700
C452        C  0.78389556  0.77641981  0.08465145    -0.27500
H453        H  0.70931054  0.71259548  0.06346520     0.11500
H454        H  0.69136893  0.69502199  0.11134836     0.12600
H455        H  0.80251961  0.78906576  0.14032424     0.11700
H456        H  0.78456663  0.77148543  0.18823126     0.10900
H457        H  0.75176381  0.74288042  0.21584571     0.16300
H458        H  0.69234581  0.69403254  0.16667405     0.12200
H459        H  0.74115609  0.74214749  0.03597418     0.15100
H460        H  0.80066040  0.79109886  0.08489706     0.14800
C461        C  0.67872083  0.67819863  0.75004765     0.80000
N462        N  0.68936764  0.68754333  0.72367121    -0.78300
C463        C  0.70935302  0.70707156  0.72370774     0.82500
N464        N  0.71866427  0.71726133  0.75056572    -0.78200
C465        C  0.70820349  0.70813021  0.77715744     0.82600
N466        N  0.68826443  0.68860113  0.77665678    -0.80000
C467        C  0.81107641  0.80972820  0.50102923     0.80000
N468        N  0.80195997  0.79916862  0.52760887    -0.78300
C469        C  0.78205566  0.77951815  0.52789388     0.82500
N470        N  0.77125271  0.77052199  0.50120784    -0.78200
C471        C  0.78011092  0.78089979  0.97448359     0.82600
N472        N  0.80003245  0.80045735  0.97463809    -0.80000
C473        C  0.68002570  0.31048177  0.75007354     0.80000
N474        N  0.68949509  0.30008036  0.77664574    -0.78300
C475        C  0.70994722  0.28103521  0.77698493     0.82500
N476        N  0.72084917  0.27219720  0.75039672    -0.78200
C477        C  0.71154950  0.28225105  0.72361585     0.82600
N478        N  0.69117772  0.30145311  0.72361582    -0.80000
C479        C  0.80933320  0.17615736  0.49983397     0.80000
N480        N  0.79935219  0.18618288  0.97334184    -0.78300
C481        C  0.77932674  0.20568473  0.97318542     0.82500
N482        N  0.76940715  0.21542940  0.49990971    -0.78200
C483        C  0.77930321  0.20570894  0.52661933     0.82600
N484        N  0.79917258  0.18602649  0.52637560    -0.80000
C485        C  0.31655454  0.68405758  0.75001351     0.80000
N486        N  0.30687128  0.69448839  0.77650419    -0.78300
C487        C  0.28678747  0.71393894  0.77676181     0.82500
N488        N  0.27637667  0.72301249  0.75003152    -0.78200
C489        C  0.28572970  0.71266543  0.72333608     0.82600
N490        N  0.30574373  0.69314418  0.72349768    -0.80000
C491        C  0.17592797  0.80603067  0.00044273     0.80000
N492        N  0.18579221  0.79600473  0.52695691    -0.78300
C493        C  0.20543742  0.77612455  0.52721313     0.82500
N494        N  0.21547446  0.76637407  0.00054468    -0.78200
C495        C  0.20602276  0.77643084  0.97377320     0.82600
N496        N  0.18622420  0.79618830  0.97398262    -0.80000
O497        O  0.96625114  0.96419172  0.97411121    -0.73100
O498        O  0.02435064  0.02294854  0.97456056    -0.74100
O499        O  0.02419169  0.96403937  0.97464358    -0.62700
O500        O  0.96627310  0.02301496  0.97429952    -0.71200
O501        O  0.96652028  0.02353473  0.52446491    -0.70700
O502        O  0.02408950  0.96436370  0.52480784    -0.62000
O503        O  0.02449713  0.02326443  0.52471800    -0.74500
O504        O  0.96610207  0.96475868  0.52427052    -0.73300
Cu505      Cu  0.99529294  0.99355389  0.97266568     1.04600
Cu506      Cu  0.99531158  0.99398521  0.52630166     1.04300
C507        C  0.95702101  0.95508696  0.49917060     0.93000
C508        C  0.03351658  0.03257502  0.49962887     0.92200
C509        C  0.03311672  0.95463565  0.49980136     0.84300
C510        C  0.95727717  0.03269386  0.49935511     0.90600
O511        O  0.52451481  0.52305072  0.72509006    -0.73100
O512        O  0.46583245  0.46548352  0.72459697    -0.74100
O513        O  0.46660001  0.52413119  0.72502888    -0.62700
O514        O  0.52390951  0.46453545  0.72502087    -0.71200
O515        O  0.52437111  0.46517388  0.77518969    -0.70700
O516        O  0.46630152  0.52390430  0.77519471    -0.62000
O517        O  0.46626561  0.46525386  0.77477493    -0.74500
O518        O  0.52423478  0.52370962  0.77527513    -0.73300
Cu519      Cu  0.49519531  0.49428181  0.72319541     1.04600
Cu520      Cu  0.49526796  0.49449125  0.77685755     1.04300
C521        C  0.53362529  0.53258773  0.75018653     0.93000
C522        C  0.45679880  0.45613961  0.74962032     0.92200
C523        C  0.45744490  0.53355157  0.75013620     0.84300
C524        C  0.53340061  0.45556524  0.75012589     0.90600
C525        C  0.17752113  0.18023223  0.99912574     0.80000
N526        N  0.18785905  0.18979623  0.97264509    -0.78300
C527        C  0.20809533  0.20910411  0.97255199     0.82500
N528        N  0.21799186  0.21881467  0.99935188    -0.78200
C529        C  0.20790086  0.20952770  0.52602799     0.82600
N530        N  0.18767634  0.19023650  0.52569101    -0.80000
C531        C  0.31367593  0.30842164  0.75007655     0.80000
N532        N  0.30310956  0.29886222  0.72358265    -0.78300
C533        C  0.28281370  0.27973219  0.72326849     0.82500
N534        N  0.27301175  0.27013083  0.74997025    -0.78200
C535        C  0.28335042  0.27943490  0.77677125     0.82600
N536        N  0.30370081  0.29859999  0.77660670    -0.80000
C537        C  0.21845050  0.22072343  0.83325730    -0.18000
C538        C  0.20795472  0.21088293  0.86055718    -0.20200
C539        C  0.21877883  0.22011392  0.88828636     0.20400
C540        C  0.24033982  0.23952807  0.88852380    -0.03100
C541        C  0.25094532  0.24945714  0.86095869    -0.06200
C542        C  0.23996182  0.23995252  0.83322082     0.20700
C543        C  0.27253324  0.26883849  0.86117389     0.18900
C544        C  0.28325955  0.27817990  0.88892062    -0.17700
C545        C  0.27275188  0.26834190  0.91623553    -0.19900
C546        C  0.25132985  0.24900040  0.91627009     0.20400
C547        C  0.24073146  0.23898046  0.94355651    -0.32900
C548        C  0.21923490  0.21955511  0.94356621     0.01100
C549        C  0.20840440  0.21025562  0.91574292    -0.24200
C550        C  0.25066393  0.24978924  0.80591755    -0.28800
C551        C  0.27225555  0.26908096  0.80584215     0.06700
C552        C  0.28303256  0.27851305  0.83366882    -0.27500
H553        H  0.20976057  0.21325110  0.81214987     0.11500
H554        H  0.19137012  0.19601167  0.85997558     0.12600
H555        H  0.29981637  0.29308290  0.88950165     0.11700
H556        H  0.28140584  0.27584903  0.93734736     0.10900
H557        H  0.24930048  0.24634753  0.96477636     0.16300
H558        H  0.19184024  0.19534795  0.91536623     0.12200
H559        H  0.24209801  0.24237021  0.78471850     0.15100
H560        H  0.29962560  0.29338845  0.83400639     0.14800
C561        C  0.20625696  0.21286154  0.63787779    -0.18000
C562        C  0.21666159  0.22267649  0.66542480    -0.20200
C563        C  0.23859186  0.24139744  0.66596490     0.20400
C564        C  0.25001150  0.25051375  0.63847702    -0.03100
C565        C  0.23950879  0.24060017  0.61066828    -0.06200
C566        C  0.21759786  0.22160588  0.61041813     0.20700
C567        C  0.25099729  0.24959314  0.58317337     0.18900
C568        C  0.27275857  0.26854653  0.58371376    -0.17700
C569        C  0.28315967  0.27838436  0.61128238    -0.19900
C570        C  0.27199225  0.26941781  0.63875849     0.20400
C571        C  0.28250189  0.27891685  0.66649135    -0.32900
C572        C  0.27139639  0.26974017  0.69405760     0.01100
C573        C  0.24934421  0.25103396  0.69352533    -0.24200
C574        C  0.20742993  0.21160930  0.58275070    -0.28800
C575        C  0.21879832  0.22033596  0.55517852     0.06700
C576        C  0.24058416  0.23942956  0.55564143    -0.27500
H577        H  0.18937063  0.19833288  0.63805801     0.11500
H578        H  0.20761853  0.21553655  0.68632072     0.12600
H579        H  0.28178513  0.27570326  0.56281548     0.11700
H580        H  0.30002259  0.29294425  0.61111182     0.10900
H581        H  0.29946118  0.29337320  0.66652223     0.16300
H582        H  0.24051542  0.24389110  0.71454271     0.12200
H583        H  0.19061287  0.19698709  0.58277470     0.15100
H584        H  0.24954817  0.24635903  0.53460809     0.14800
C585        C  0.39163456  0.39558981  0.69472271    -0.18000
C586        C  0.37185354  0.37468833  0.69480030    -0.20200
C587        C  0.36361520  0.36263347  0.72211878     0.20400
C588        C  0.37532577  0.37176471  0.74963268    -0.03100
C589        C  0.39526562  0.39283426  0.74955770    -0.06200
C590        C  0.40350347  0.40474463  0.72196574     0.20700
C591        C  0.40695712  0.40194011  0.77710365     0.18900
C592        C  0.39860349  0.39002294  0.80441859    -0.17700
C593        C  0.37883631  0.36915543  0.80449247    -0.19900
C594        C  0.36710380  0.35988618  0.77724733     0.20400
C595        C  0.34719779  0.33904811  0.77720262    -0.32900
C596        C  0.33530085  0.32988191  0.74990345     0.01100
C597        C  0.34376978  0.34172550  0.72242165    -0.24200
C598        C  0.42351978  0.42551719  0.72211367    -0.28800
C599        C  0.43538371  0.43456374  0.74951203     0.06700
C600        C  0.42687132  0.42273267  0.77689604    -0.27500
H601        H  0.39768561  0.40455827  0.67335306     0.11500
H602        H  0.36299221  0.36794768  0.67348020     0.12600
H603        H  0.40738883  0.39682727  0.82575141     0.11700
H604        H  0.37271158  0.36026921  0.82587620     0.10900
H605        H  0.34091140  0.33008446  0.79850019     0.16300
H606        H  0.33475747  0.33490153  0.70120301     0.12200
H607        H  0.42987630  0.43457665  0.70088760     0.15100
H608        H  0.43587486  0.42955717  0.79812222     0.14800
C609        C  0.11343094  0.11942589  0.55424907    -0.18000
C610        C  0.09342118  0.09873812  0.55434851    -0.20200
C611        C  0.08384694  0.08728047  0.52703919     0.20400
C612        C  0.09434516  0.09696665  0.99933855    -0.03100
C613        C  0.11454862  0.11785770  0.99924097    -0.06200
C614        C  0.12421405  0.12902154  0.52684429     0.20700
C615        C  0.12516700  0.12743147  0.97155402     0.18900
C616        C  0.11532974  0.11622801  0.94422804    -0.17700
C617        C  0.09530509  0.09554829  0.94432314    -0.19900
C618        C  0.08477666  0.08569731  0.97173998     0.20400
C619        C  0.06493798  0.06472042  0.97202749    -0.32900
C620        C  0.05450769  0.05474720  0.49955608     0.01100
C621        C  0.06404072  0.06626053  0.52697338    -0.24200
C622        C  0.14459088  0.14945651  0.52660116    -0.28800
C623        C  0.15554651  0.15897623  0.49910687     0.06700
C624        C  0.14553600  0.14790248  0.97165526    -0.27500
H625        H  0.12057093  0.12784142  0.57564856     0.11500
H626        H  0.08551524  0.09161171  0.57581124     0.12600
H627        H  0.12320922  0.12338244  0.92276429     0.11700
H628        H  0.08812881  0.08716861  0.92292199     0.10900
H629        H  0.05769322  0.05611091  0.95075276     0.16300
H630        H  0.05607352  0.05887408  0.54831320     0.12200
H631        H  0.15198595  0.15782325  0.54792543     0.15100
H632        H  0.15369369  0.15504163  0.95030462     0.14800
C633        C  0.09558951  0.89207445  0.55519862    -0.18000
C634        C  0.11559383  0.87136273  0.55527094    -0.20200
C635        C  0.12483732  0.85978128  0.52795197     0.20400
C636        C  0.11368994  0.86901368  0.00029483    -0.03100
C637        C  0.09351312  0.88991876  0.00021946    -0.06200
C638        C  0.08451994  0.90156838  0.52780334     0.20700
C639        C  0.08246651  0.89923530  0.97254319     0.18900
C640        C  0.09145484  0.88740180  0.94525135    -0.17700
C641        C  0.11145899  0.86669956  0.94532686    -0.19900
C642        C  0.12277927  0.85746438  0.97269893     0.20400
C643        C  0.14306442  0.83694033  0.97292191    -0.32900
C644        C  0.15440837  0.82767294  0.50039415     0.01100
C645        C  0.14507648  0.83920583  0.52782806    -0.24200
C646        C  0.06474349  0.92261295  0.52750973    -0.28800
C647        C  0.05385930  0.93226727  0.49997915     0.06700
C648        C  0.06274707  0.92031947  0.97260590    -0.27500
H649        H  0.08886056  0.90075958  0.57658068     0.11500
H650        H  0.12390554  0.86446223  0.57670860     0.12600
H651        H  0.08310622  0.89425979  0.92381569     0.11700
H652        H  0.11815332  0.85797714  0.92394840     0.10900
H653        H  0.14997711  0.82819814  0.95162963     0.16300
H654        H  0.15361452  0.83229143  0.54916057     0.12200
H655        H  0.05796076  0.93157116  0.54874886     0.15100
H656        H  0.05437223  0.92744618  0.95127809     0.14800
C657        C  0.39455442  0.59628409  0.80510535    -0.18000
C658        C  0.37503763  0.61746885  0.80508911    -0.20200
C659        C  0.36653617  0.62948348  0.77778350     0.20400
C660        C  0.37783290  0.62010917  0.75022486    -0.03100
C661        C  0.39753215  0.59874032  0.75024087    -0.06200
C662        C  0.40589629  0.58676395  0.77781720     0.20700
C663        C  0.40877228  0.58932381  0.72266357     0.18900
C664        C  0.40032714  0.60138940  0.69537298    -0.17700
C665        C  0.38077830  0.62253032  0.69535578    -0.19900
C666        C  0.36937473  0.63198186  0.72263165     0.20400
C667        C  0.34955970  0.65297747  0.72275063    -0.32900
C668        C  0.33803976  0.66236318  0.75011362     0.01100
C669        C  0.34681731  0.65057098  0.77756186    -0.24200
C670        C  0.42541047  0.56546370  0.77762126    -0.28800
C671        C  0.43667192  0.55589257  0.75019705     0.06700
C672        C  0.42822144  0.56798793  0.72282134    -0.27500
H673        H  0.40074963  0.58731007  0.82647667     0.11500
H674        H  0.36654070  0.62441640  0.82644519     0.12600
H675        H  0.40879078  0.59441718  0.67401165     0.11700
H676        H  0.37452221  0.63144722  0.67397692     0.10900
H677        H  0.34307284  0.66192092  0.70145895     0.16300
H678        H  0.33811342  0.65755267  0.79881053     0.12200
H679        H  0.43178317  0.55632599  0.79885698     0.15100
H680        H  0.43682360  0.56086512  0.70157545     0.14800
C681        C  0.23860243  0.78361767  0.66230902    -0.18000
C682        C  0.22714758  0.79233107  0.63493304    -0.20200
C683        C  0.22702836  0.77471618  0.60958096     0.20400
C684        C  0.23852797  0.74802934  0.61177832    -0.03100
C685        C  0.25007036  0.73922173  0.63942259    -0.06200
C686        C  0.25009858  0.75712504  0.66478575     0.20700
C687        C  0.26170949  0.71259062  0.64161499     0.18900
C688        C  0.26131933  0.69487374  0.61633353    -0.17700
C689        C  0.24991978  0.70362347  0.58890768    -0.19900
C690        C  0.23869258  0.73023684  0.58631690     0.20400
C691        C  0.22783561  0.73946269  0.55868820    -0.32900
C692        C  0.21643025  0.76608457  0.55636442     0.01100
C693        C  0.21584384  0.78344228  0.58200660    -0.24200
C694        C  0.26168079  0.74826927  0.69215217    -0.28800
C695        C  0.27360077  0.72188743  0.69440274     0.06700
C696        C  0.27357972  0.70418482  0.66901484    -0.27500
H697        H  0.23851298  0.79762233  0.68153586     0.11500
H698        H  0.21845351  0.81291576  0.63356059     0.12600
H699        H  0.27000288  0.67428580  0.61771303     0.11700
H700        H  0.25004868  0.68963855  0.56966493     0.10900
H701        H  0.22812611  0.72590963  0.53906193     0.16300
H702        H  0.20721302  0.80404913  0.58033737     0.12200
H703        H  0.26172561  0.76203997  0.71160265     0.15100
H704        H  0.28249242  0.68370302  0.67069355     0.14800
C705        C  0.27379834  0.72122700  0.91619179    -0.18000
C706        C  0.28536439  0.71291148  0.88868802    -0.20200
C707        C  0.27487064  0.72282032  0.86119791     0.20400
C708        C  0.25253881  0.74133249  0.86139264    -0.03100
C709        C  0.24087846  0.74974263  0.88915271    -0.06200
C710        C  0.25155531  0.73961349  0.91666707     0.20700
C711        C  0.21856544  0.76827431  0.88934854     0.18900
C712        C  0.20806739  0.77818321  0.86185658    -0.17700
C713        C  0.21957269  0.76979236  0.83434754    -0.19900
C714        C  0.24180406  0.75138951  0.83387652     0.20000
C715        C  0.25334569  0.74274368  0.80637022    -0.32900
C716        C  0.27548314  0.72406905  0.80592923     0.01100
C717        C  0.28620665  0.71437243  0.83353906    -0.24200
C718        C  0.23990127  0.74811347  0.94417504    -0.28800
C719        C  0.21774092  0.76675014  0.94461838     0.06700
C720        C  0.20718306  0.77665208  0.91700870    -0.27500
H721        H  0.28226058  0.71327517  0.93710216     0.11500
H722        H  0.30250592  0.69866842  0.88892031     0.12600
H723        H  0.19092947  0.79243084  0.86162475     0.11700
H724        H  0.21106698  0.77768887  0.81343207     0.10900
H725        H  0.24484941  0.75036870  0.78531985     0.16300
H726        H  0.30325157  0.70000111  0.83359155     0.12200
H727        H  0.24828874  0.74036690  0.96522364     0.15100
H728        H  0.19011697  0.79099762  0.91695011     0.14800
C729        C  0.89875781  0.09971318  0.55412590    -0.18000
C730        C  0.87790485  0.11955631  0.55422341    -0.20200
C731        C  0.86512518  0.12735867  0.52708236     0.20400
C732        C  0.87353649  0.11517711  0.99954676    -0.03100
C733        C  0.89457843  0.09515144  0.99944776    -0.06200
C734        C  0.90715818  0.08731906  0.52689107     0.20700
C735        C  0.90291126  0.08288414  0.97191786     0.18900
C736        C  0.89024786  0.09080987  0.94475960    -0.17700
C737        C  0.86940061  0.11065229  0.94485993    -0.19900
C738        C  0.86088751  0.12292077  0.97211632     0.20400
C739        C  0.83994649  0.14277329  0.97239503    -0.32900
C740        C  0.83136491  0.15501829  0.49976329     0.01100
C741        C  0.84408433  0.14711045  0.52702623    -0.24200
C742        C  0.92774372  0.06707934  0.52665934    -0.28800
C743        C  0.93598721  0.05453088  0.49933343     0.06700
C744        C  0.92359045  0.06274925  0.97203044    -0.27500
H745        H  0.90823859  0.09396788  0.57539010     0.11500
H746        H  0.87172107  0.12875319  0.57555346     0.12600
H747        H  0.89640491  0.08158783  0.92343324     0.11700
H748        H  0.85989729  0.11637343  0.92360070     0.10900
H749        H  0.83031245  0.14860746  0.95123605     0.16300
H750        H  0.83775081  0.15641059  0.54825756     0.12200
H751        H  0.93725462  0.06102908  0.54781559     0.15100
H752        H  0.92980103  0.05326134  0.95085035     0.14800
C753        C  0.61153029  0.36735699  0.69559853    -0.18000
C754        C  0.59119604  0.38775106  0.69561692    -0.20200
C755        C  0.58329920  0.40065503  0.72275331     0.20400
C756        C  0.59593713  0.39287096  0.75017813    -0.03100
C757        C  0.61644184  0.37226002  0.75016286    -0.06200
C758        C  0.62433099  0.35952116  0.72272066     0.20700
C759        C  0.62909425  0.36449752  0.77757736     0.18900
C760        C  0.62118069  0.37738644  0.80472576    -0.17700
C761        C  0.60090582  0.39783918  0.80473592    -0.19900
C762        C  0.58814511  0.40570191  0.77760356     0.20400
C763        C  0.56772899  0.42613733  0.77742978    -0.32900
C764        C  0.55498038  0.43399631  0.75016977     0.01100
C765        C  0.56298147  0.42117357  0.72291976    -0.24200
C766        C  0.64497864  0.33930409  0.72283522    -0.28800
C767        C  0.65783986  0.33151904  0.75006715     0.06700
C768        C  0.64956666  0.34413598  0.77736995    -0.27500
H769        H  0.61730255  0.35776142  0.67433662     0.11500
H770        H  0.58166628  0.39346506  0.67436868     0.12600
H771        H  0.63072718  0.37169069  0.82597052     0.11700
H772        H  0.59519478  0.40750150  0.82598427     0.10900
H773        H  0.56183066  0.43595554  0.79854227     0.16300
H774        H  0.55330979  0.42704817  0.70179283     0.12200
H775        H  0.65100902  0.32965859  0.70167800     0.15100
H776        H  0.65928559  0.33839380  0.79851191     0.14800
C777        C  0.76553101  0.19704179  0.63700778    -0.18000
C778        C  0.75653328  0.20797106  0.66462977    -0.20200
C779        C  0.74484712  0.23447803  0.66601921     0.20400
C780        C  0.74230105  0.25018168  0.63934313    -0.03100
C781        C  0.75141100  0.23915875  0.61146652    -0.06200
C782        C  0.76304292  0.21244644  0.61031603     0.20700
C783        C  0.74875916  0.25481769  0.58476270     0.18900
C784        C  0.73741462  0.28146643  0.58622735    -0.17700
C785        C  0.72832490  0.29235499  0.61383236    -0.19900
C786        C  0.73045096  0.27680325  0.64045472     0.20400
C787        C  0.72067110  0.28727577  0.66808090    -0.32900
C788        C  0.72287837  0.27163300  0.69472373     0.01100
C789        C  0.73535887  0.24539604  0.69354390    -0.24200
C790        C  0.77199306  0.20162546  0.58251946    -0.28800
C791        C  0.76924424  0.21703117  0.55575292     0.06700
C792        C  0.75750926  0.24358916  0.55707674    -0.27500
H793        H  0.77440582  0.17649615  0.63651801     0.11500
H794        H  0.75860037  0.19563232  0.68489462     0.12600
H795        H  0.73541473  0.29383419  0.56597734     0.11700
H796        H  0.71944585  0.31289741  0.61431834     0.10900
H797        H  0.71132104  0.30761170  0.66883598     0.16300
H798        H  0.73707150  0.23313860  0.71392214     0.12200
H799        H  0.78094450  0.18110787  0.58169977     0.15100
H800        H  0.75557374  0.25571848  0.53663046     0.14800
C801        C  0.79325617  0.22793843  0.86539836    -0.18000
C802        C  0.78363858  0.23866232  0.83801983    -0.20200
C803        C  0.75676876  0.24874902  0.83564115     0.20400
C804        C  0.73943984  0.24814199  0.86113031    -0.03100
C805        C  0.74917458  0.23738603  0.88878969    -0.06200
C806        C  0.77619708  0.22719122  0.89087460     0.20700
C807        C  0.73191727  0.23694297  0.91435100     0.18900
C808        C  0.70497600  0.24683113  0.91189428    -0.17700
C809        C  0.69530776  0.25742574  0.88445810    -0.19900
C810        C  0.71242016  0.25835084  0.85902722     0.20400
C811        C  0.70300595  0.26930500  0.83155282    -0.32900
C812        C  0.72011302  0.26982609  0.80600978     0.01100
C813        C  0.74694726  0.25943103  0.80822842    -0.24200
C814        C  0.78573606  0.21657031  0.91842737    -0.28800
C815        C  0.76881788  0.21647219  0.94412662     0.06700
C816        C  0.74193023  0.22671971  0.94192361    -0.27500
H817        H  0.81408444  0.22026531  0.86666040     0.11500
H818        H  0.79721624  0.23904789  0.81869104     0.12600
H819        H  0.69141113  0.24647826  0.93123371     0.11700
H820        H  0.67445522  0.26502645  0.88317162     0.10900
H821        H  0.68222813  0.27709829  0.82994246     0.16300
H822        H  0.76030078  0.25993135  0.78869370     0.12200
H823        H  0.80653398  0.20882247  0.92001271     0.15100
H824        H  0.72871790  0.22645931  0.96158166     0.14800
C825        C  0.89776865  0.88783940  0.94491675    -0.18000
C826        C  0.87729721  0.86760021  0.94521181    -0.20200
C827        C  0.86542856  0.85938064  0.97262133     0.20400
C828        C  0.87439423  0.87152570  0.50000916    -0.03100
C829        C  0.89501243  0.89196547  0.49970845    -0.06200
C830        C  0.90668817  0.90022928  0.97202570     0.20700
C831        C  0.90383398  0.90419735  0.52711750     0.18900
C832        C  0.89212419  0.89583794  0.55452866    -0.17700
C833        C  0.87173296  0.87557855  0.55482821    -0.19900
C834        C  0.86270065  0.86334653  0.52771668     0.20400
C835        C  0.84213377  0.84314549  0.52788136    -0.32900
C836        C  0.83292896  0.83100677  0.50068518     0.01100
C837        C  0.84473423  0.83928497  0.97312127    -0.24200
C838        C  0.92696386  0.92080914  0.97194891    -0.28800
C839        C  0.93574960  0.93323178  0.49921636     0.06700
C840        C  0.92411898  0.92466386  0.52668915    -0.27500
H841        H  0.90654956  0.89388199  0.92346488     0.11500
H842        H  0.87069289  0.85842337  0.92397622     0.12600
H843        H  0.89869757  0.90502901  0.57576597     0.11700
H844        H  0.86297234  0.86952104  0.57628502     0.10900
H845        H  0.83320184  0.83702469  0.54924021     0.16300
H846        H  0.83792654  0.83004421  0.95198877     0.12200
H847        H  0.93586253  0.92715064  0.95065054     0.15100
H848        H  0.93072752  0.93403954  0.54782868     0.14800
C849        C  0.59963381  0.59088022  0.69526764    -0.18000
C850        C  0.61980089  0.61138432  0.69520101    -0.20200
C851        C  0.62816818  0.62397908  0.72239227     0.20400
C852        C  0.61609430  0.61587030  0.74991550    -0.03100
C853        C  0.59575097  0.59521029  0.74998211    -0.06200
C854        C  0.58749805  0.58268066  0.72251549     0.20700
C855        C  0.58370212  0.58710308  0.77752461     0.18900
C856        C  0.59202252  0.59972013  0.80470266    -0.17700
C857        C  0.61219749  0.62019274  0.80463422    -0.19900
C858        C  0.62436523  0.62835382  0.77739287     0.20400
C859        C  0.64472089  0.64871643  0.77720030    -0.32900
C860        C  0.65697912  0.65687411  0.74988990     0.01100
C861        C  0.64846754  0.64445061  0.72254418    -0.24200
C862        C  0.56723279  0.56220906  0.72277291    -0.28800
C863        C  0.55511171  0.55404550  0.75013966     0.06700
C864        C  0.56351572  0.56655853  0.77742902    -0.27500
H865        H  0.59351770  0.58143779  0.67399091     0.11500
H866        H  0.62888056  0.61736837  0.67388424     0.12600
H867        H  0.58293896  0.59374037  0.82601941     0.11700
H868        H  0.61832198  0.62961994  0.82591464     0.10900
H869        H  0.65099992  0.65817461  0.79841816     0.16300
H870        H  0.65773505  0.65053713  0.70135228     0.12200
H871        H  0.56093634  0.55262495  0.70162399     0.15100
H872        H  0.55426343  0.56043315  0.79861944     0.14800
C873        C  0.76704494  0.77266898  0.83518303    -0.18000
C874        C  0.77693441  0.78293030  0.86276119    -0.20200
C875        C  0.76754119  0.77202259  0.89018413     0.20400
C876        C  0.74781464  0.75073385  0.88987983    -0.03100
C877        C  0.73779893  0.74040557  0.86204466    -0.06200
C878        C  0.74757360  0.75135400  0.83459072     0.20700
C879        C  0.71815377  0.71903844  0.86170330     0.18900
C880        C  0.70859161  0.70829445  0.88914890    -0.17700
C881        C  0.71856460  0.71849421  0.91674854    -0.19900
C882        C  0.73823525  0.73963903  0.91734825     0.20400
C883        C  0.74863038  0.74972856  0.94490991    -0.32900
C884        C  0.76854473  0.77077559  0.94540311     0.01100
C885        C  0.77771350  0.78190657  0.91787009    -0.24200
C886        C  0.73782133  0.74075029  0.80701066    -0.28800
C887        C  0.71832076  0.71934500  0.80641732     0.06700
C888        C  0.70852000  0.70869700  0.83394155    -0.27500
H889        H  0.77470557  0.78133663  0.81430797     0.11500
H890        H  0.79205571  0.79932392  0.86263504     0.12600
H891        H  0.69347228  0.69189897  0.88927091     0.11700
H892        H  0.71096698  0.70977182  0.93762459     0.10900
H893        H  0.74134094  0.74100011  0.96592737     0.16300
H894        H  0.79297239  0.79817926  0.91787401     0.12200
H895        H  0.74547500  0.74921196  0.78602041     0.15100
H896        H  0.69347909  0.69221764  0.83385077     0.14800
C897        C  0.71854246  0.71951912  0.58451573    -0.18000
C898        C  0.70829924  0.70949903  0.61184335    -0.20200
C899        C  0.71971611  0.71816746  0.63949630     0.20400
C900        C  0.74177106  0.73699952  0.63963797    -0.03100
C901        C  0.75211034  0.74712047  0.61204770    -0.06200
C902        C  0.74035583  0.73839441  0.58439399     0.20700
C903        C  0.77405508  0.76609028  0.61216197     0.18900
C904        C  0.78562014  0.77456322  0.63982648    -0.17700
C905        C  0.77536891  0.76453680  0.66717583    -0.19900
C906        C  0.75339206  0.74584901  0.66732143     0.20400
C907        C  0.74278248  0.73595973  0.69465760    -0.32900
C908        C  0.72069387  0.71725424  0.69474499     0.01100
C909        C  0.70936947  0.70841107  0.66698198    -0.24200
C910        C  0.75043066  0.74884544  0.55709534    -0.28800
C911        C  0.77208253  0.76806678  0.55694149     0.06700
C912        C  0.78389717  0.77642177  0.58465088    -0.27500
H913        H  0.70931228  0.71259719  0.56346546     0.11500
H914        H  0.69136925  0.69502597  0.61134890     0.12600
H915        H  0.80252039  0.78906948  0.64032366     0.11700
H916        H  0.78456644  0.77149074  0.68823101     0.10900
H917        H  0.75176323  0.74288598  0.71584584     0.16300
H918        H  0.69234546  0.69403782  0.66667421     0.12200
H919        H  0.74115862  0.74214761  0.53597414     0.15100
H920        H  0.80066194  0.79110095  0.58489618     0.14800
loop_ 
_geom_bond_atom_site_label_1 
_geom_bond_atom_site_label_2 
_geom_bond_distance 
_geom_bond_site_symmetry_2 
_ccdc_geom_bond_type 
C1            N2   1.358       .  A
C1            N6   1.357       .  A
C1          C400   1.481       .  S
N2            C3   1.359       .  A
C3            N4   1.359       .  A
C3          C448   1.483       .  S
N4            C5   1.359       .  A
C5            N6   1.357       .  A
C5          C427   1.482       .  S
C7            N8   1.360       .  A
C7          N472   1.357   1_554  A
C7          C376   1.483       .  S
N8            C9   1.360       .  A
C9           N10   1.359       .  A
C9          C451   1.485       .  S
N10         C471   1.358   1_554  A
C11          N12   1.357       .  A
C11         N470   1.358       .  A
C11         C424   1.482       .  S
N12         C467   1.357       .  A
C13          N14   1.359       .  A
C13          N18   1.361       .  A
C13         C307   1.486       .  S
N14          C15   1.358       .  A
C15          N16   1.358       .  A
C15         C352   1.479       .  S
N16          C17   1.358       .  A
C17          N18   1.360       .  A
C17         C328   1.482       .  S
C19          N24   1.359   1_556  A
C19         N480   1.358       .  A
C19         C280   1.484       .  S
N20          C21   1.358       .  A
N20         C479   1.358       .  A
C21         N482   1.359       .  A
C21         C355   1.479       .  S
N22          C23   1.360   1_556  A
N22         C481   1.359       .  A
C23          N24   1.359       .  A
C23         C331   1.481       .  S
C25          N26   1.358       .  A
C25          N30   1.359       .  A
C25         C208   1.483       .  S
N26          C27   1.358       .  A
C27          N28   1.359       .  A
C27         C256   1.484       .  S
N28          C29   1.359       .  A
C29          N30   1.358       .  A
C29         C235   1.478       .  S
C31          N36   1.358       .  A
C31         N492   1.357       .  A
C31         C644   1.483       .  S
N32          C33   1.358       .  A
N32         C491   1.357       .  A
C33         N494   1.360       .  A
C33         C232   1.478       .  S
N34          C35   1.361       .  A
N34         C493   1.360       .  A
C35          N36   1.359       .  A
C35         C259   1.484       .  S
O37         Cu45   2.009       .  S
O37         C507   1.278       .  A
O38         Cu45   2.010   1_445  S
O38         C508   1.279       .  A
O39         Cu45   2.008   1_455  S
O39         C509   1.279       .  A
O40         Cu45   2.010   1_545  S
O40         C510   1.279       .  A
O41         Cu46   2.006   1_545  S
O41          C50   1.278   1_554  A
O42         Cu46   2.007   1_455  S
O42          C49   1.278   1_554  A
O43         Cu46   2.011   1_445  S
O43          C48   1.279   1_554  A
O44         Cu46   2.010       .  S
O44          C47   1.279   1_554  A
Cu45       Cu506   2.370       .  S
Cu46       Cu505   2.370   1_554  S
C47         C379   1.482       .  S
C47         O497   1.278       .  A
C48         C160   1.484       .  S
C48         O498   1.279       .  A
C49         C187   1.481       .  S
C49         O499   1.279       .  A
C50         C283   1.481       .  S
C50         O500   1.279       .  A
O51         Cu59   1.998       .  S
O51          C61   1.277       .  A
O52         Cu59   2.001       .  S
O52          C62   1.277       .  A
O53         Cu59   2.009       .  S
O53          C63   1.279       .  A
O54         Cu59   2.010       .  S
O54          C64   1.279       .  A
O55         Cu60   2.008       .  S
O55          C64   1.278       .  A
O56         Cu60   2.007       .  S
O56          C63   1.278       .  A
O57         Cu60   2.003       .  S
O57          C62   1.278       .  A
O58         Cu60   2.002       .  S
O58          C61   1.278       .  A
Cu59        Cu60   2.371       .  S
C61         C403   1.476       .  S
C62         C139   1.478       .  S
C63         C211   1.481       .  S
C64         C304   1.482       .  S
C65          N66   1.360       .  A
C65         N530   1.359       .  A
C65         C623   1.487       .  S
N66          C67   1.360       .  A
C67          N68   1.359       .  A
C67          C88   1.485       .  S
N68         C529   1.358       .  A
C69          N70   1.359       .  A
C69         N528   1.358   1_554  A
C69         C115   1.484       .  S
N70         C525   1.359   1_554  A
C71          N72   1.356       .  A
C71          N76   1.359       .  A
C71         C136   1.481       .  S
N72          C73   1.356       .  A
C73          N74   1.359       .  A
C73         C112   1.483       .  S
N74          C75   1.360       .  A
C75          N76   1.359       .  A
C75          C91   1.486       .  S
C77          C78   1.398       .  A
C77          C82   1.403       .  A
C77          H93   1.083       .  S
C78          C79   1.403       .  A
C78          H94   1.084       .  S
C79          C89   1.403       .  A
C79          C80   1.411       .  A
C80          C86   1.411       .  A
C80          C81   1.412       .  A
C81          C83   1.411       .  A
C81          C82   1.411       .  A
C82          C90   1.402       .  A
C83          C92   1.404       .  A
C83          C84   1.404       .  A
C84          C85   1.399       .  A
C84          H95   1.084       .  S
C85          C86   1.404       .  A
C85          H96   1.083       .  S
C86          C87   1.403       .  A
C87          C88   1.409       .  A
C87          H97   1.084       .  S
C88          C89   1.408       .  A
C89          H98   1.084       .  S
C90          C91   1.408       .  A
C90          H99   1.084       .  S
C91          C92   1.409       .  A
C92         H100   1.084       .  S
C101        C102   1.398       .  A
C101        C106   1.403       .  A
C101        H117   1.084       .  S
C102        C103   1.403       .  A
C102        H118   1.083       .  S
C103        C113   1.402       .  A
C103        C104   1.411       .  A
C104        C110   1.410       .  A
C104        C105   1.411       .  A
C105        C107   1.411       .  A
C105        C106   1.411       .  A
C106        C114   1.401       .  A
C107        C116   1.403       .  A
C107        C108   1.404       .  A
C108        C109   1.399       .  A
C108        H119   1.083       .  S
C109        C110   1.404       .  A
C109        H120   1.084       .  S
C110        C111   1.402       .  A
C111        C112   1.409       .  A
C111        H121   1.084       .  S
C112        C113   1.407       .  A
C113        H122   1.084       .  S
C114        C115   1.408       .  A
C114        H123   1.084       .  S
C115        C116   1.409       .  A
C116        H124   1.084       .  S
C125        C126   1.399       .  A
C125        C130   1.404       .  A
C125        H141   1.083       .  S
C126        C127   1.404       .  A
C126        H142   1.084       .  S
C127        C137   1.401       .  A
C127        C128   1.410       .  A
C128        C134   1.411       .  A
C128        C129   1.410       .  A
C129        C131   1.411       .  A
C129        C130   1.411       .  A
C130        C138   1.402       .  A
C131        C140   1.399       .  A
C131        C132   1.403       .  A
C132        C133   1.397       .  A
C132        H143   1.084       .  S
C133        C134   1.403       .  A
C133        H144   1.083       .  S
C134        C135   1.401       .  A
C135        C136   1.406       .  A
C135        H145   1.084       .  S
C136        C137   1.409       .  A
C137        H146   1.084       .  S
C138        C139   1.408       .  A
C138        H147   1.084       .  S
C139        C140   1.406       .  A
C140        H148   1.084       .  S
C149        C150   1.399       .  A
C149        C154   1.404       .  A
C149        H165   1.084       .  S
C150        C151   1.404       .  A
C150        H166   1.083       .  S
C151        C161   1.404       .  A
C151        C612   1.411   1_554  A
C152        C158   1.411       .  A
C152        C153   1.413       .  A
C152        C611   1.411       .  A
C153        C155   1.411       .  A
C153        C614   1.411       .  A
C154        C162   1.403       .  A
C154        C613   1.411   1_554  A
C155        C164   1.404       .  A
C155        C156   1.404       .  A
C156        C157   1.399       .  A
C156        H167   1.083       .  S
C157        C158   1.404       .  A
C157        H168   1.084       .  S
C158        C159   1.403       .  A
C159        C620   1.408       .  A
C159        H169   1.084       .  S
C160        C161   1.408   1_556  A
C160        C619   1.408       .  A
C161        H170   1.084       .  S
C162        C163   1.409   1_554  A
C162        H171   1.084       .  S
C163        C525   1.487       .  S
C163        C624   1.409       .  A
C164        C623   1.409       .  A
C164        H172   1.084       .  S
C173        C174   1.399       .  A
C173        C178   1.403       .  A
C173        H189   1.084       .  S
C174        C175   1.403       .  A
C174        H190   1.084       .  S
C175        C185   1.402       .  A
C175        C636   1.411       .  A
C176        C182   1.411       .  A
C176        C177   1.411       .  A
C176        C635   1.411       .  A
C177        C179   1.411       .  A
C177        C638   1.411       .  A
C178        C186   1.403       .  A
C178        C637   1.411       .  A
C179        C188   1.402       .  A
C179        C180   1.403       .  A
C180        C181   1.398       .  A
C180        H191   1.084       .  S
C181        C182   1.403       .  A
C181        H192   1.084       .  S
C182        C183   1.402       .  A
C183        C644   1.408       .  A
C183        H193   1.084       .  S
C184        C491   1.483       .  S
C184        C185   1.408       .  A
C184        C643   1.408   1_554  A
C185        H194   1.084       .  S
C186        C187   1.408   1_554  A
C186        H195   1.084       .  S
C187        C648   1.407       .  A
C188        C647   1.407       .  A
C188        H196   1.084       .  S
C197        C198   1.399       .  A
C197        C202   1.404       .  A
C197        H213   1.084       .  S
C198        C199   1.404       .  A
C198        H214   1.084       .  S
C199        C209   1.402       .  A
C199        C200   1.411       .  A
C200        C206   1.411       .  A
C200        C201   1.411       .  A
C201        C203   1.411       .  A
C201        C202   1.411       .  A
C202        C210   1.403       .  A
C203        C212   1.402       .  A
C203        C204   1.403       .  A
C204        C205   1.398       .  A
C204        H215   1.083       .  S
C205        C206   1.403       .  A
C205        H216   1.084       .  S
C206        C207   1.402       .  A
C207        C208   1.408       .  A
C207        H217   1.084       .  S
C208        C209   1.409       .  A
C209        H218   1.084       .  S
C210        C211   1.408       .  A
C210        H219   1.084       .  S
C211        C212   1.407       .  A
C212        H220   1.084       .  S
C221        C222   1.398       .  A
C221        C226   1.403       .  A
C221        H237   1.083       .  S
C222        C223   1.403       .  A
C222        H238   1.084       .  S
C223        C233   1.401       .  A
C223        C224   1.411       .  A
C224        C230   1.412       .  A
C224        C225   1.411       .  A
C225        C227   1.411       .  A
C225        C226   1.412       .  A
C226        C234   1.402       .  A
C227        C236   1.403       .  A
C227        C228   1.404       .  A
C228        C229   1.399       .  A
C228        H239   1.084       .  S
C229        C230   1.404       .  A
C229        H240   1.083       .  S
C230        C231   1.404       .  A
C231        C232   1.406       .  A
C231        H241   1.084       .  S
C232        C233   1.406       .  A
C233        H242   1.084       .  S
C234        C235   1.406       .  A
C234        H243   1.084       .  S
C235        C236   1.407       .  A
C236        H244   1.084       .  S
C245        C246   1.399       .  A
C245        C250   1.403       .  A
C245        H261   1.083       .  S
C246        C247   1.403       .  A
C246        H262   1.084       .  S
C247        C257   1.402       .  A
C247        C248   1.410       .  A
C248        C254   1.411       .  A
C248        C249   1.412       .  A
C249        C251   1.410       .  A
C249        C250   1.411       .  A
C250        C258   1.403       .  A
C251        C260   1.402       .  A
C251        C252   1.404       .  A
C252        C253   1.399       .  A
C252        H263   1.084       .  S
C253        C254   1.403       .  A
C253        H264   1.083       .  S
C254        C255   1.403       .  A
C255        C256   1.408       .  A
C255        H265   1.084       .  S
C256        C257   1.409       .  A
C257        H266   1.084       .  S
C258        C259   1.408       .  A
C258        H267   1.084       .  S
C259        C260   1.409       .  A
C260        H268   1.084       .  S
C269        C270   1.399       .  A
C269        C274   1.404       .  A
C269        H285   1.084       .  S
C270        C271   1.403       .  A
C270        H286   1.083       .  S
C271        C281   1.402       .  A
C271        C732   1.411   1_554  A
C272        C278   1.411       .  A
C272        C273   1.411       .  A
C272        C731   1.411       .  A
C273        C275   1.411       .  A
C273        C734   1.411       .  A
C274        C282   1.403       .  A
C274        C733   1.411   1_554  A
C275        C284   1.402       .  A
C275        C276   1.403       .  A
C276        C277   1.398       .  A
C276        H287   1.083       .  S
C277        C278   1.403       .  A
C277        H288   1.084       .  S
C278        C279   1.402       .  A
C279        C740   1.408       .  A
C279        H289   1.084       .  S
C280        C281   1.408   1_556  A
C280        C739   1.408       .  A
C281        H290   1.084       .  S
C282        C283   1.408   1_554  A
C282        H291   1.084       .  S
C283        C744   1.407       .  A
C284        C743   1.407       .  A
C284        H292   1.084       .  S
C293        C294   1.399       .  A
C293        C298   1.404       .  A
C293        H309   1.083       .  S
C294        C295   1.403       .  A
C294        H310   1.084       .  S
C295        C305   1.403       .  A
C295        C296   1.411       .  A
C296        C302   1.411       .  A
C296        C297   1.412       .  A
C297        C299   1.411       .  A
C297        C298   1.411       .  A
C298        C306   1.404       .  A
C299        C308   1.403       .  A
C299        C300   1.404       .  A
C300        C301   1.399       .  A
C300        H311   1.084       .  S
C301        C302   1.404       .  A
C301        H312   1.083       .  S
C302        C303   1.403       .  A
C303        C304   1.408       .  A
C303        H313   1.084       .  S
C304        C305   1.407       .  A
C305        H314   1.084       .  S
C306        C307   1.408       .  A
C306        H315   1.084       .  S
C307        C308   1.409       .  A
C308        H316   1.084       .  S
C317        C318   1.399       .  A
C317        C322   1.404       .  A
C317        H333   1.084       .  S
C318        C319   1.404       .  A
C318        H334   1.083       .  S
C319        C329   1.403       .  A
C319        C320   1.411       .  A
C320        C326   1.412       .  A
C320        C321   1.412       .  A
C321        C323   1.411       .  A
C321        C322   1.411       .  A
C322        C330   1.403       .  A
C323        C332   1.403       .  A
C323        C324   1.404       .  A
C324        C325   1.399       .  A
C324        H335   1.083       .  S
C325        C326   1.403       .  A
C325        H336   1.084       .  S
C326        C327   1.404       .  A
C327        C328   1.407       .  A
C327        H337   1.084       .  S
C328        C329   1.408       .  A
C329        H338   1.084       .  S
C330        C331   1.407       .  A
C330        H339   1.084       .  S
C331        C332   1.407       .  A
C332        H340   1.084       .  S
C341        C342   1.399       .  A
C341        C346   1.403       .  A
C341        H357   1.084       .  S
C342        C343   1.403       .  A
C342        H358   1.083       .  S
C343        C353   1.402       .  A
C343        C344   1.411       .  A
C344        C350   1.411       .  A
C344        C345   1.412       .  A
C345        C347   1.412       .  A
C345        C346   1.411       .  A
C346        C354   1.402       .  A
C347        C356   1.404       .  A
C347        C348   1.404       .  A
C348        C349   1.399       .  A
C348        H359   1.083       .  S
C349        C350   1.404       .  A
C349        H360   1.084       .  S
C350        C351   1.403       .  A
C351        C352   1.407       .  A
C351        H361   1.084       .  S
C352        C353   1.406       .  A
C353        H362   1.084       .  S
C354        C355   1.407       .  A
C354        H363   1.084       .  S
C355        C356   1.406       .  A
C356        H364   1.084       .  S
C365        C366   1.400       .  A
C365        C370   1.404       .  A
C365        H381   1.083       .  S
C366        C367   1.404       .  A
C366        H382   1.084       .  S
C367        C377   1.403       .  A
C367        C828   1.410       .  A
C368        C374   1.411       .  A
C368        C369   1.412   1_554  A
C368        C827   1.410   1_554  A
C369        C371   1.411   1_556  A
C369        C830   1.411       .  A
C370        C378   1.404       .  A
C370        C829   1.411       .  A
C371        C380   1.401       .  A
C371        C372   1.403       .  A
C372        C373   1.398       .  A
C372        H383   1.084       .  S
C373        C374   1.403       .  A
C373        H384   1.083       .  S
C374        C375   1.402       .  A
C375        C376   1.407       .  A
C375        H385   1.084       .  S
C376        C837   1.410   1_554  A
C377        C836   1.410       .  A
C377        H386   1.084       .  S
C378        C839   1.409       .  A
C378        H387   1.084       .  S
C379        C380   1.407   1_556  A
C379        C838   1.409       .  A
C380        H388   1.084       .  S
C389        C390   1.398       .  A
C389        C394   1.403       .  A
C389        H405   1.084       .  S
C390        C391   1.403       .  A
C390        H406   1.083       .  S
C391        C401   1.401       .  A
C391        C392   1.411       .  A
C392        C398   1.411       .  A
C392        C393   1.409       .  A
C393        C395   1.411       .  A
C393        C394   1.411       .  A
C394        C402   1.400       .  A
C395        C404   1.400       .  A
C395        C396   1.403       .  A
C396        C397   1.397       .  A
C396        H407   1.083       .  S
C397        C398   1.403       .  A
C397        H408   1.084       .  S
C398        C399   1.400       .  A
C399        C400   1.407       .  A
C399        H409   1.084       .  S
C400        C401   1.408       .  A
C401        H410   1.084       .  S
C402        C403   1.407       .  A
C402        H411   1.084       .  S
C403        C404   1.406       .  A
C404        H412   1.084       .  S
C413        C414   1.398       .  A
C413        C418   1.403       .  A
C413        H429   1.083       .  S
C414        C415   1.403       .  A
C414        H430   1.084       .  S
C415        C425   1.400       .  A
C415        C416   1.410       .  A
C416        C422   1.411       .  A
C416        C417   1.411       .  A
C417        C419   1.410       .  A
C417        C418   1.411       .  A
C418        C426   1.401       .  A
C419        C428   1.402       .  A
C419        C420   1.404       .  A
C420        C421   1.399       .  A
C420        H431   1.084       .  S
C421        C422   1.404       .  A
C421        H432   1.083       .  S
C422        C423   1.403       .  A
C423        C424   1.408       .  A
C423        H433   1.084       .  S
C424        C425   1.408       .  A
C425        H434   1.084       .  S
C426        C427   1.407       .  A
C426        H435   1.084       .  S
C427        C428   1.409       .  A
C428        H436   1.084       .  S
C437        C438   1.398       .  A
C437        C442   1.403       .  A
C437        H453   1.083       .  S
C438        C439   1.403       .  A
C438        H454   1.084       .  S
C439        C449   1.401       .  A
C439        C440   1.411       .  A
C440        C446   1.411       .  A
C440        C441   1.411       .  A
C441        C443   1.411       .  A
C441        C442   1.411       .  A
C442        C450   1.401       .  A
C443        C452   1.403       .  A
C443        C444   1.404       .  A
C444        C445   1.399       .  A
C444        H455   1.084       .  S
C445        C446   1.404       .  A
C445        H456   1.083       .  S
C446        C447   1.403       .  A
C447        C448   1.408       .  A
C447        H457   1.084       .  S
C448        C449   1.408       .  A
C449        H458   1.084       .  S
C450        C451   1.408       .  A
C450        H459   1.084       .  S
C451        C452   1.409       .  A
C452        H460   1.084       .  S
C461        N462   1.358       .  A
C461        N466   1.357       .  A
C461        C860   1.481       .  S
N462        C463   1.359       .  A
C463        N464   1.359       .  A
C463        C908   1.483       .  S
N464        C465   1.359       .  A
C465        N466   1.357       .  A
C465        C887   1.482       .  S
C467        N468   1.360       .  A
C467        C836   1.483       .  S
N468        C469   1.360       .  A
C469        N470   1.359       .  A
C469        C911   1.485       .  S
C471        N472   1.357       .  A
C471        C884   1.482       .  S
C473        N474   1.359       .  A
C473        N478   1.361       .  A
C473        C767   1.486       .  S
N474        C475   1.358       .  A
C475        N476   1.358       .  A
C475        C812   1.479       .  S
N476        C477   1.359       .  A
C477        N478   1.360       .  A
C477        C788   1.482       .  S
C479        N484   1.359       .  A
C479        C740   1.484       .  S
N480        C481   1.358       .  A
C481        C815   1.479       .  S
N482        C483   1.360       .  A
C483        N484   1.359       .  A
C483        C791   1.481       .  S
C485        N486   1.358       .  A
C485        N490   1.359       .  A
C485        C668   1.483       .  S
N486        C487   1.358       .  A
C487        N488   1.359       .  A
C487        C716   1.484       .  S
N488        C489   1.359       .  A
C489        N490   1.358       .  A
C489        C695   1.478       .  S
C491        N496   1.358   1_554  A
N492        C493   1.358       .  A
C493        C692   1.478       .  S
N494        C495   1.361   1_554  A
C495        N496   1.359       .  A
C495        C719   1.484       .  S
O497       Cu505   2.009       .  S
O498       Cu505   2.010   1_445  S
O499       Cu505   2.008   1_455  S
O500       Cu505   2.010   1_545  S
O501       Cu506   2.006   1_545  S
O501        C510   1.278       .  A
O502       Cu506   2.007   1_455  S
O502        C509   1.278       .  A
O503       Cu506   2.011   1_445  S
O503        C508   1.279       .  A
O504       Cu506   2.010       .  S
O504        C507   1.279       .  A
C507        C839   1.482       .  S
C508        C620   1.484       .  S
C509        C647   1.481       .  S
C510        C743   1.481       .  S
O511       Cu519   1.998       .  S
O511        C521   1.277       .  A
O512       Cu519   2.001       .  S
O512        C522   1.277       .  A
O513       Cu519   2.009       .  S
O513        C523   1.279       .  A
O514       Cu519   2.010       .  S
O514        C524   1.279       .  A
O515       Cu520   2.008       .  S
O515        C524   1.278       .  A
O516       Cu520   2.007       .  S
O516        C523   1.278       .  A
O517       Cu520   2.003       .  S
O517        C522   1.278       .  A
O518       Cu520   2.002       .  S
O518        C521   1.278       .  A
Cu519      Cu520   2.371       .  S
C521        C863   1.476       .  S
C522        C599   1.478       .  S
C523        C671   1.481       .  S
C524        C764   1.482       .  S
C525        N526   1.360       .  A
N526        C527   1.360       .  A
C527        N528   1.359       .  A
C527        C548   1.485       .  S
C529        N530   1.359       .  A
C529        C575   1.484       .  S
C531        N532   1.356       .  A
C531        N536   1.359       .  A
C531        C596   1.481       .  S
N532        C533   1.356       .  A
C533        N534   1.359       .  A
C533        C572   1.483       .  S
N534        C535   1.360       .  A
C535        N536   1.359       .  A
C535        C551   1.486       .  S
C537        C538   1.398       .  A
C537        C542   1.403       .  A
C537        H553   1.083       .  S
C538        C539   1.403       .  A
C538        H554   1.084       .  S
C539        C549   1.403       .  A
C539        C540   1.411       .  A
C540        C546   1.411       .  A
C540        C541   1.412       .  A
C541        C543   1.411       .  A
C541        C542   1.411       .  A
C542        C550   1.402       .  A
C543        C552   1.404       .  A
C543        C544   1.404       .  A
C544        C545   1.399       .  A
C544        H555   1.084       .  S
C545        C546   1.404       .  A
C545        H556   1.083       .  S
C546        C547   1.403       .  A
C547        C548   1.409       .  A
C547        H557   1.084       .  S
C548        C549   1.408       .  A
C549        H558   1.084       .  S
C550        C551   1.408       .  A
C550        H559   1.084       .  S
C551        C552   1.409       .  A
C552        H560   1.084       .  S
C561        C562   1.398       .  A
C561        C566   1.403       .  A
C561        H577   1.084       .  S
C562        C563   1.403       .  A
C562        H578   1.083       .  S
C563        C573   1.402       .  A
C563        C564   1.411       .  A
C564        C570   1.410       .  A
C564        C565   1.411       .  A
C565        C567   1.411       .  A
C565        C566   1.411       .  A
C566        C574   1.401       .  A
C567        C576   1.403       .  A
C567        C568   1.404       .  A
C568        C569   1.399       .  A
C568        H579   1.083       .  S
C569        C570   1.404       .  A
C569        H580   1.084       .  S
C570        C571   1.402       .  A
C571        C572   1.409       .  A
C571        H581   1.084       .  S
C572        C573   1.407       .  A
C573        H582   1.084       .  S
C574        C575   1.408       .  A
C574        H583   1.084       .  S
C575        C576   1.409       .  A
C576        H584   1.084       .  S
C585        C586   1.399       .  A
C585        C590   1.404       .  A
C585        H601   1.083       .  S
C586        C587   1.404       .  A
C586        H602   1.084       .  S
C587        C597   1.401       .  A
C587        C588   1.410       .  A
C588        C594   1.411       .  A
C588        C589   1.410       .  A
C589        C591   1.411       .  A
C589        C590   1.411       .  A
C590        C598   1.402       .  A
C591        C600   1.399       .  A
C591        C592   1.403       .  A
C592        C593   1.397       .  A
C592        H603   1.084       .  S
C593        C594   1.403       .  A
C593        H604   1.083       .  S
C594        C595   1.401       .  A
C595        C596   1.406       .  A
C595        H605   1.084       .  S
C596        C597   1.409       .  A
C597        H606   1.084       .  S
C598        C599   1.408       .  A
C598        H607   1.084       .  S
C599        C600   1.406       .  A
C600        H608   1.084       .  S
C609        C610   1.399       .  A
C609        C614   1.404       .  A
C609        H625   1.084       .  S
C610        C611   1.404       .  A
C610        H626   1.083       .  S
C611        C621   1.404       .  A
C612        C618   1.411       .  A
C612        C613   1.413       .  A
C613        C615   1.411       .  A
C614        C622   1.403       .  A
C615        C624   1.404       .  A
C615        C616   1.404       .  A
C616        C617   1.399       .  A
C616        H627   1.083       .  S
C617        C618   1.404       .  A
C617        H628   1.084       .  S
C618        C619   1.403       .  A
C619        H629   1.084       .  S
C620        C621   1.408       .  A
C621        H630   1.084       .  S
C622        C623   1.409       .  A
C622        H631   1.084       .  S
C624        H632   1.084       .  S
C633        C634   1.399       .  A
C633        C638   1.403       .  A
C633        H649   1.084       .  S
C634        C635   1.403       .  A
C634        H650   1.084       .  S
C635        C645   1.402       .  A
C636        C642   1.411   1_554  A
C636        C637   1.411       .  A
C637        C639   1.411   1_554  A
C638        C646   1.403       .  A
C639        C648   1.402       .  A
C639        C640   1.403       .  A
C640        C641   1.398       .  A
C640        H651   1.084       .  S
C641        C642   1.403       .  A
C641        H652   1.084       .  S
C642        C643   1.402       .  A
C643        H653   1.084       .  S
C644        C645   1.408       .  A
C645        H654   1.084       .  S
C646        C647   1.408       .  A
C646        H655   1.084       .  S
C648        H656   1.084       .  S
C657        C658   1.399       .  A
C657        C662   1.404       .  A
C657        H673   1.084       .  S
C658        C659   1.404       .  A
C658        H674   1.084       .  S
C659        C669   1.402       .  A
C659        C660   1.411       .  A
C660        C666   1.411       .  A
C660        C661   1.411       .  A
C661        C663   1.411       .  A
C661        C662   1.411       .  A
C662        C670   1.403       .  A
C663        C672   1.402       .  A
C663        C664   1.403       .  A
C664        C665   1.398       .  A
C664        H675   1.083       .  S
C665        C666   1.403       .  A
C665        H676   1.084       .  S
C666        C667   1.402       .  A
C667        C668   1.408       .  A
C667        H677   1.084       .  S
C668        C669   1.409       .  A
C669        H678   1.084       .  S
C670        C671   1.408       .  A
C670        H679   1.084       .  S
C671        C672   1.407       .  A
C672        H680   1.084       .  S
C681        C682   1.398       .  A
C681        C686   1.403       .  A
C681        H697   1.083       .  S
C682        C683   1.403       .  A
C682        H698   1.084       .  S
C683        C693   1.401       .  A
C683        C684   1.411       .  A
C684        C690   1.412       .  A
C684        C685   1.411       .  A
C685        C687   1.411       .  A
C685        C686   1.412       .  A
C686        C694   1.402       .  A
C687        C696   1.403       .  A
C687        C688   1.404       .  A
C688        C689   1.399       .  A
C688        H699   1.084       .  S
C689        C690   1.404       .  A
C689        H700   1.083       .  S
C690        C691   1.404       .  A
C691        C692   1.406       .  A
C691        H701   1.084       .  S
C692        C693   1.406       .  A
C693        H702   1.084       .  S
C694        C695   1.406       .  A
C694        H703   1.084       .  S
C695        C696   1.407       .  A
C696        H704   1.084       .  S
C705        C706   1.399       .  A
C705        C710   1.403       .  A
C705        H721   1.083       .  S
C706        C707   1.403       .  A
C706        H722   1.084       .  S
C707        C717   1.402       .  A
C707        C708   1.410       .  A
C708        C714   1.411       .  A
C708        C709   1.412       .  A
C709        C711   1.410       .  A
C709        C710   1.411       .  A
C710        C718   1.403       .  A
C711        C720   1.402       .  A
C711        C712   1.404       .  A
C712        C713   1.399       .  A
C712        H723   1.084       .  S
C713        C714   1.403       .  A
C713        H724   1.083       .  S
C714        C715   1.403       .  A
C715        C716   1.408       .  A
C715        H725   1.084       .  S
C716        C717   1.409       .  A
C717        H726   1.084       .  S
C718        C719   1.408       .  A
C718        H727   1.084       .  S
C719        C720   1.409       .  A
C720        H728   1.084       .  S
C729        C730   1.399       .  A
C729        C734   1.404       .  A
C729        H745   1.084       .  S
C730        C731   1.403       .  A
C730        H746   1.083       .  S
C731        C741   1.402       .  A
C732        C738   1.411       .  A
C732        C733   1.411       .  A
C733        C735   1.411       .  A
C734        C742   1.403       .  A
C735        C744   1.402       .  A
C735        C736   1.403       .  A
C736        C737   1.398       .  A
C736        H747   1.083       .  S
C737        C738   1.403       .  A
C737        H748   1.084       .  S
C738        C739   1.402       .  A
C739        H749   1.084       .  S
C740        C741   1.408       .  A
C741        H750   1.084       .  S
C742        C743   1.408       .  A
C742        H751   1.084       .  S
C744        H752   1.084       .  S
C753        C754   1.399       .  A
C753        C758   1.404       .  A
C753        H769   1.083       .  S
C754        C755   1.403       .  A
C754        H770   1.084       .  S
C755        C765   1.403       .  A
C755        C756   1.411       .  A
C756        C762   1.411       .  A
C756        C757   1.412       .  A
C757        C759   1.411       .  A
C757        C758   1.411       .  A
C758        C766   1.404       .  A
C759        C768   1.403       .  A
C759        C760   1.404       .  A
C760        C761   1.399       .  A
C760        H771   1.084       .  S
C761        C762   1.404       .  A
C761        H772   1.083       .  S
C762        C763   1.403       .  A
C763        C764   1.408       .  A
C763        H773   1.084       .  S
C764        C765   1.407       .  A
C765        H774   1.084       .  S
C766        C767   1.408       .  A
C766        H775   1.084       .  S
C767        C768   1.409       .  A
C768        H776   1.084       .  S
C777        C778   1.399       .  A
C777        C782   1.404       .  A
C777        H793   1.084       .  S
C778        C779   1.404       .  A
C778        H794   1.083       .  S
C779        C789   1.403       .  A
C779        C780   1.411       .  A
C780        C786   1.412       .  A
C780        C781   1.412       .  A
C781        C783   1.411       .  A
C781        C782   1.411       .  A
C782        C790   1.403       .  A
C783        C792   1.403       .  A
C783        C784   1.404       .  A
C784        C785   1.399       .  A
C784        H795   1.083       .  S
C785        C786   1.403       .  A
C785        H796   1.084       .  S
C786        C787   1.404       .  A
C787        C788   1.407       .  A
C787        H797   1.084       .  S
C788        C789   1.408       .  A
C789        H798   1.084       .  S
C790        C791   1.407       .  A
C790        H799   1.084       .  S
C791        C792   1.407       .  A
C792        H800   1.084       .  S
C801        C802   1.399       .  A
C801        C806   1.403       .  A
C801        H817   1.084       .  S
C802        C803   1.403       .  A
C802        H818   1.083       .  S
C803        C813   1.402       .  A
C803        C804   1.411       .  A
C804        C810   1.411       .  A
C804        C805   1.412       .  A
C805        C807   1.412       .  A
C805        C806   1.411       .  A
C806        C814   1.402       .  A
C807        C816   1.404       .  A
C807        C808   1.404       .  A
C808        C809   1.399       .  A
C808        H819   1.083       .  S
C809        C810   1.404       .  A
C809        H820   1.084       .  S
C810        C811   1.403       .  A
C811        C812   1.407       .  A
C811        H821   1.084       .  S
C812        C813   1.406       .  A
C813        H822   1.084       .  S
C814        C815   1.407       .  A
C814        H823   1.084       .  S
C815        C816   1.406       .  A
C816        H824   1.084       .  S
C825        C826   1.400       .  A
C825        C830   1.404       .  A
C825        H841   1.083       .  S
C826        C827   1.404       .  A
C826        H842   1.084       .  S
C827        C837   1.403       .  A
C828        C834   1.411       .  A
C828        C829   1.412       .  A
C829        C831   1.411       .  A
C830        C838   1.404       .  A
C831        C840   1.401       .  A
C831        C832   1.403       .  A
C832        C833   1.398       .  A
C832        H843   1.084       .  S
C833        C834   1.403       .  A
C833        H844   1.083       .  S
C834        C835   1.402       .  A
C835        C836   1.407       .  A
C835        H845   1.084       .  S
C837        H846   1.084       .  S
C838        H847   1.084       .  S
C839        C840   1.407       .  A
C840        H848   1.084       .  S
C849        C850   1.398       .  A
C849        C854   1.403       .  A
C849        H865   1.084       .  S
C850        C851   1.403       .  A
C850        H866   1.083       .  S
C851        C861   1.401       .  A
C851        C852   1.411       .  A
C852        C858   1.411       .  A
C852        C853   1.409       .  A
C853        C855   1.411       .  A
C853        C854   1.411       .  A
C854        C862   1.400       .  A
C855        C864   1.400       .  A
C855        C856   1.403       .  A
C856        C857   1.397       .  A
C856        H867   1.083       .  S
C857        C858   1.403       .  A
C857        H868   1.084       .  S
C858        C859   1.400       .  A
C859        C860   1.407       .  A
C859        H869   1.084       .  S
C860        C861   1.408       .  A
C861        H870   1.084       .  S
C862        C863   1.407       .  A
C862        H871   1.084       .  S
C863        C864   1.406       .  A
C864        H872   1.084       .  S
C873        C874   1.398       .  A
C873        C878   1.403       .  A
C873        H889   1.083       .  S
C874        C875   1.403       .  A
C874        H890   1.084       .  S
C875        C885   1.400       .  A
C875        C876   1.410       .  A
C876        C882   1.411       .  A
C876        C877   1.411       .  A
C877        C879   1.410       .  A
C877        C878   1.411       .  A
C878        C886   1.401       .  A
C879        C888   1.402       .  A
C879        C880   1.404       .  A
C880        C881   1.399       .  A
C880        H891   1.084       .  S
C881        C882   1.404       .  A
C881        H892   1.083       .  S
C882        C883   1.403       .  A
C883        C884   1.408       .  A
C883        H893   1.084       .  S
C884        C885   1.408       .  A
C885        H894   1.084       .  S
C886        C887   1.407       .  A
C886        H895   1.084       .  S
C887        C888   1.409       .  A
C888        H896   1.084       .  S
C897        C898   1.398       .  A
C897        C902   1.403       .  A
C897        H913   1.083       .  S
C898        C899   1.403       .  A
C898        H914   1.084       .  S
C899        C909   1.401       .  A
C899        C900   1.411       .  A
C900        C906   1.411       .  A
C900        C901   1.411       .  A
C901        C903   1.411       .  A
C901        C902   1.411       .  A
C902        C910   1.401       .  A
C903        C912   1.403       .  A
C903        C904   1.404       .  A
C904        C905   1.399       .  A
C904        H915   1.084       .  S
C905        C906   1.404       .  A
C905        H916   1.083       .  S
C906        C907   1.403       .  A
C907        C908   1.408       .  A
C907        H917   1.084       .  S
C908        C909   1.408       .  A
C909        H918   1.084       .  S
C910        C911   1.408       .  A
C910        H919   1.084       .  S
C911        C912   1.409       .  A
C912        H920   1.084       .  S
