geometry optimzed in LAMMPS
_audit_creation_date              2020-11-30 
_audit_creation_method            'lammps2cif' 
_symmetry_space_group_name_H-M    'P1' 
_symmetry_Int_Tables_number       1 
_symmetry_cell_setting            triclinic 
loop_ 
_symmetry_equiv_pos_as_xyz 
  x,y,z 
_cell_length_a                    43.71574373 
_cell_length_b                    32.391215640655375 
_cell_length_c                    33.87514090706046 
_cell_angle_alpha                 89.94701126208172 
_cell_angle_beta                  90.09367069954763 
_cell_angle_gamma                 90.05607110283925 
loop_ 
_atom_site_label 
_atom_site_type_symbol 
_atom_site_fract_x 
_atom_site_fract_y 
_atom_site_fract_z 
_atom_site_charge 
C1          C  0.99810991  0.96505771  0.02394450     0.01600
C2          C  0.02626005  0.97838917  0.00792347     0.01600
C3          C  0.02650606  0.00788739  0.97737568     0.01600
C4          C  0.49857794  0.02151681  0.96068503     0.01600
C5          C  0.47032810  0.00786136  0.97642274     0.01600
C6          C  0.47014947  0.97913432  0.00770412     0.01600
O7          O  0.47733530  0.20673553  0.58386919    -0.82500
C8          C  0.00261629  0.30134303  0.72110913     0.96900
O9          O  0.47850613  0.28159208  0.71323368    -0.71600
O10         O  0.45198373  0.30190880  0.64685501    -0.75200
Al11       Al  0.46479324  0.25103232  0.66881345     1.49000
C12         C  0.45024789  0.31035154  0.61062814     0.92100
O13         O  0.02513038  0.30474095  0.59150577    -0.81400
O14         O  0.04813201  0.20080572  0.64349007    -0.75000
Al15       Al  0.50124250  0.25550812  0.59062241     1.90100
O16         O  0.05805637  0.28444687  0.63631368    -0.74000
O17         O  0.02059788  0.21324967  0.71037740    -0.73900
O18         O  0.02638860  0.29666060  0.70059426    -0.79500
O19         O  0.47299807  0.20021792  0.69442488    -0.77700
O20         O  0.00041188  0.25180656  0.64325838    -1.13900
O21         O  0.44357289  0.21965426  0.63015720    -0.73100
C22         C  0.45210981  0.19914042  0.60051692     0.97600
C23         C  0.05034774  0.30914734  0.60925190     0.94000
Al24       Al  0.03532138  0.24898439  0.67027582     1.55600
O25         O  0.46586569  0.29029010  0.58583139    -0.77700
C26         C  0.49638589  0.19268817  0.71493735     0.98200
C27         C  0.05127904  0.19766271  0.60669250     0.93100
O28         O  0.03698455  0.22152108  0.58356220    -0.83000
C29         C  0.00160518  0.47015698  0.96858252     0.01600
C30         C  0.47296045  0.48226612  0.98430417     0.01600
C31         C  0.47212174  0.51014639  0.01634551     0.01600
C32         C  0.99976109  0.52416256  0.03343473     0.01600
C33         C  0.02822858  0.51186307  0.01754812     0.01600
C34         C  0.02914790  0.48375860  0.98600843     0.01600
O35         O  0.02550468  0.70666116  0.41105587    -0.82500
C36         C  0.49535345  0.80309726  0.27617708     0.96900
O37         O  0.02035028  0.78538165  0.28374508    -0.71600
O38         O  0.04866984  0.80283846  0.34925384    -0.75200
Al39       Al  0.03535232  0.75283957  0.32613362     1.49000
C40         C  0.05078262  0.81082660  0.38548416     0.92100
O41         O  0.47583809  0.80280590  0.40681383    -0.81400
O42         O  0.45280935  0.69959898  0.35466466    -0.75000
Al43       Al  0.00060485  0.75452432  0.40592239     1.90100
O44         O  0.44246918  0.78301611  0.36230286    -0.74000
O45         O  0.47854140  0.71277730  0.28676647    -0.73900
O46         O  0.47170054  0.79552324  0.29612359    -0.79500
O47         O  0.02723138  0.70314821  0.29860271    -0.77700
O48         O  0.50022123  0.75182299  0.35304352    -1.13900
O49         O  0.05757346  0.72006077  0.36290789    -0.73100
C50         C  0.05027359  0.69956449  0.39318415     0.97600
C51         C  0.45039605  0.80720877  0.38965674     0.94000
Al52       Al  0.46453612  0.74800659  0.32739425     1.55600
O53         O  0.03534939  0.79050595  0.41026328    -0.77700
C54         C  0.00326953  0.69440716  0.27973597     0.98200
C55         C  0.45097558  0.69536466  0.39150396     0.93100
O56         O  0.46586074  0.71902101  0.41414270    -0.83000
C57         C  0.25172546  0.97711056  0.46265574     0.01600
C58         C  0.22387184  0.99056551  0.47937995     0.01600
C59         C  0.22425980  0.01902593  0.51093347     0.01600
C60         C  0.25272116  0.03230904  0.52650732     0.01600
C61         C  0.28042294  0.01882104  0.50958771     0.01600
C62         C  0.27997632  0.99019531  0.47852616     0.01600
O63         O  0.22455171  0.69839888  0.09083910    -0.82500
C64         C  0.25420291  0.80409253  0.21895084     0.96900
O65         O  0.22928149  0.78586415  0.21240253    -0.71600
O66         O  0.20248414  0.80030647  0.14530479    -0.75200
Al67       Al  0.21448463  0.75134542  0.17165807     1.49000
C68         C  0.20041666  0.80527769  0.10854925     0.92100
O69         O  0.27511270  0.79392254  0.08847701    -0.81400
O70         O  0.29736747  0.69525177  0.14814917    -0.75000
Al71       Al  0.24983550  0.74622156  0.09264365     1.90100
O72         O  0.30779546  0.77775784  0.13514130    -0.74000
O73         O  0.27044556  0.71318116  0.21422039    -0.73900
O74         O  0.27794965  0.79519117  0.19976342    -0.79500
O75         O  0.22174917  0.70312926  0.20210350    -0.77700
O76         O  0.24986149  0.74767361  0.14548763    -1.13900
O77         O  0.19194821  0.71725400  0.13650581    -0.73100
C78         C  0.19923978  0.69395796  0.10823124     0.97600
C79         C  0.30041395  0.79949183  0.10571271     0.94000
Al80       Al  0.28525872  0.74550086  0.17188992     1.55600
O81         O  0.21536137  0.78232247  0.08542922    -0.77700
C82         C  0.24557226  0.69522263  0.22167656     0.98200
C83         C  0.29924703  0.68808954  0.11173092     0.93100
O84         O  0.28425029  0.70970340  0.08741343    -0.83000
C85         C  0.24959518  0.53464101  0.47434171     0.01600
C86         C  0.27755562  0.52099847  0.49069698     0.01600
C87         C  0.27740863  0.49144672  0.52114436     0.01600
C88         C  0.24935677  0.47815358  0.53747378     0.01600
C89         C  0.22131958  0.49252538  0.52176549     0.01600
C90         C  0.22149613  0.52127758  0.49055547     0.01600
O91         O  0.27323265  0.19554784  0.90735910    -0.82500
C92         C  0.24419229  0.30494153  0.78179048     0.96900
O93         O  0.26836735  0.28444308  0.78671409    -0.71600
O94         O  0.29641439  0.29768595  0.85293296    -0.75200
Al95       Al  0.28311991  0.24924210  0.82707955     1.49000
C96         C  0.29949644  0.30188437  0.88961853     0.92100
O97         O  0.22507547  0.29381196  0.91242954    -0.81400
O98         O  0.20017957  0.19641436  0.85137285    -0.75000
Al99       Al  0.24916435  0.24476756  0.90689338     1.90100
O100        O  0.19114705  0.27893469  0.86686212    -0.74000
O101        O  0.22611833  0.21621491  0.78447802    -0.73900
O102        O  0.22070840  0.29771079  0.80222103    -0.79500
O103        O  0.27392459  0.20130993  0.79739595    -0.77700
O104        O  0.24828245  0.24711324  0.85418152    -1.13900
O105        O  0.30571848  0.21408787  0.86144839    -0.73100
C106        C  0.29814993  0.19022132  0.88922649     0.97600
C107        C  0.19965789  0.30063061  0.89580041     0.94000
Al108      Al  0.21256758  0.24719313  0.82862182     1.55600
O109        O  0.28483674  0.27906553  0.91327486    -0.77700
C110        C  0.25022889  0.19659360  0.77666326     0.98200
C111        C  0.19883203  0.18836993  0.88772615     0.93100
O112        O  0.21394422  0.20964721  0.91224430    -0.83000
C113        C  0.23522006  0.39011244  0.60872889    -0.11500
C114        C  0.24630998  0.40729582  0.64401043     0.05600
C115        C  0.25944270  0.44676813  0.64365935    -0.10300
C116        C  0.26075301  0.46927046  0.60870317    -0.11900
C117        C  0.24959305  0.45228911  0.57346481    -0.01700
C118        C  0.23722185  0.41231503  0.57346340    -0.10800
C119        C  0.24494505  0.38381584  0.68111049     0.05600
H120        H  0.26807548  0.46046808  0.67062254     0.07600
H121        H  0.27000077  0.50031074  0.60919766     0.11000
H122        H  0.22858647  0.39882322  0.54642258     0.11300
H123        H  0.22532206  0.35943288  0.60847539     0.07600
C124        C  0.21722857  0.36683049  0.69429813    -0.11500
C125        C  0.21645937  0.34320205  0.72882176    -0.10800
C126        C  0.24352595  0.33567951  0.74995529    -0.01700
C127        C  0.27102868  0.35369135  0.73723407    -0.11900
C128        C  0.27167957  0.37784543  0.70324574    -0.10300
H129        H  0.19634168  0.37150837  0.67764786     0.07600
H130        H  0.19508227  0.32918914  0.73790079     0.11300
H131        H  0.29219164  0.34818569  0.75305085     0.11000
H132        H  0.29326319  0.39071340  0.69344786     0.07600
C133        C  0.27223251  0.62461117  0.30281331    -0.11500
C134        C  0.24595139  0.62188026  0.32634341     0.05600
C135        C  0.21867110  0.64038819  0.31342657    -0.10300
C136        C  0.21793376  0.66227827  0.27786700    -0.11900
C137        C  0.24461885  0.66651787  0.25524808    -0.01700
C138        C  0.27163394  0.64700305  0.26770521    -0.10800
C139        C  0.24730339  0.60027416  0.36458566     0.05600
H140        H  0.19808175  0.63821790  0.33104746     0.07600
H141        H  0.19694050  0.67745360  0.26899759     0.11000
H142        H  0.29250554  0.64994239  0.25074624     0.11300
H143        H  0.29351713  0.61062499  0.31230660     0.07600
C144        C  0.26023288  0.56075158  0.36691954    -0.11500
C145        C  0.26130630  0.54000682  0.40289494    -0.10800
C146        C  0.24994182  0.55868657  0.43718004    -0.01700
C147        C  0.23782272  0.59870314  0.43521398    -0.11900
C148        C  0.23619500  0.61921796  0.39898814    -0.10300
H149        H  0.26887811  0.54560525  0.34073166     0.07600
H150        H  0.27055720  0.50899712  0.40395228     0.11300
H151        H  0.22924134  0.61365506  0.46151911     0.11000
H152        H  0.22653740  0.64998877  0.39783023     0.07600
C153        C  0.22871287  0.88041207  0.29566079    -0.11500
C154        C  0.25465571  0.88230471  0.31991406     0.05600
C155        C  0.28132428  0.86118318  0.30910182    -0.10300
C156        C  0.28184176  0.83762575  0.27461476    -0.11900
C157        C  0.25545406  0.83424168  0.25119095    -0.01700
C158        C  0.22898622  0.85613163  0.26172463    -0.10800
C159        C  0.25369168  0.90609324  0.35667519     0.05600
H160        H  0.30156566  0.86268914  0.32753406     0.07600
H161        H  0.30234106  0.82053151  0.26725653     0.11000
H162        H  0.20835846  0.85377159  0.24410998     0.11300
H163        H  0.20799700  0.89668544  0.30370170     0.07600
C164        C  0.24839472  0.94867763  0.35524332    -0.11500
C165        C  0.24762797  0.97150523  0.38999589    -0.10800
C166        C  0.25140447  0.95184445  0.42653513    -0.01700
C167        C  0.25643917  0.90918640  0.42815880    -0.11900
C168        C  0.25777470  0.88637490  0.39323272    -0.10300
H169        H  0.24536330  0.96424712  0.32720367     0.07600
H170        H  0.24430905  0.00460963  0.38849685     0.11300
H171        H  0.25967806  0.89387037  0.45627483     0.11000
H172        H  0.26176451  0.85340622  0.39464291     0.07600
C173        C  0.22711500  0.14820190  0.68001594    -0.11500
C174        C  0.25367778  0.12662144  0.66979906     0.05600
C175        C  0.27870893  0.12627828  0.69579924    -0.10300
C176        C  0.27741688  0.14811184  0.73126379    -0.11900
C177        C  0.25092022  0.17016993  0.74134382    -0.01700
C178        C  0.22567070  0.16960657  0.71557087    -0.10800
C179        C  0.25479976  0.10350071  0.63252681     0.05600
H180        H  0.29940677  0.10970747  0.68830163     0.07600
H181        H  0.29726154  0.14825205  0.75043820     0.11000
H182        H  0.20496156  0.18644509  0.72244252     0.11300
H183        H  0.20742262  0.14825906  0.66056267     0.07600
C184        C  0.26328159  0.06181719  0.63288189    -0.11500
C185        C  0.26259934  0.03899957  0.59814727    -0.10800
C186        C  0.25396927  0.05771993  0.56253255    -0.01700
C187        C  0.24606395  0.09959534  0.56179811    -0.11900
C188        C  0.24624591  0.12235773  0.59678300    -0.10300
H189        H  0.26956860  0.04666732  0.66022584     0.07600
H190        H  0.26836966  0.00650023  0.59904021     0.11300
H191        H  0.23936107  0.11427607  0.53439419     0.11000
H192        H  0.23971212  0.15459464  0.59603860     0.07600
C193        C  0.15259345  0.59119418  0.48910380    -0.11500
C194        C  0.14048305  0.58403960  0.45124641     0.05600
C195        C  0.15396793  0.55346602  0.42738784    -0.10300
C196        C  0.17976499  0.53188609  0.44046178    -0.11900
C197        C  0.19236231  0.54043340  0.47762698    -0.01700
C198        C  0.17822303  0.56946615  0.50218584    -0.10800
C199        C  0.11550467  0.61063398  0.43573223     0.05600
H200        H  0.14490128  0.54676751  0.39833292     0.07600
H201        H  0.19037526  0.50931971  0.42130425     0.11000
H202        H  0.18780559  0.57641109  0.53094352     0.11300
H203        H  0.14310674  0.61486876  0.50799364     0.07600
C204        C  0.09171294  0.62438756  0.46040943    -0.11500
C205        C  0.06988625  0.65246326  0.44643303    -0.10800
C206        C  0.07158118  0.66749918  0.40761327    -0.01700
C207        C  0.09481731  0.65285085  0.38268140    -0.11900
C208        C  0.11647889  0.62475614  0.39653683    -0.10300
H209        H  0.09014079  0.61373757  0.49064240     0.07600
H210        H  0.05220077  0.66320421  0.46626464     0.11300
H211        H  0.09660700  0.66368549  0.35251105     0.11000
H212        H  0.13470649  0.61535790  0.37690353     0.07600
C213        C  0.40109502  0.63673700  0.46378887    -0.11500
C214        C  0.38504716  0.60978336  0.43866157     0.05600
C215        C  0.39271442  0.60880518  0.39842286    -0.10300
C216        C  0.41491315  0.63563367  0.38330634    -0.11900
C217        C  0.43007278  0.66380309  0.40818058    -0.01700
C218        C  0.42343968  0.66334153  0.44874922    -0.10800
C219        C  0.35875912  0.58537451  0.45377280     0.05600
H220        H  0.38056713  0.58860739  0.37830904     0.07600
H221        H  0.41956735  0.63512135  0.35192837     0.11000
H222        H  0.43476723  0.68453811  0.46872062     0.11300
H223        H  0.39589857  0.63780326  0.49501002     0.07600
C224        C  0.33713930  0.60428867  0.47847855    -0.11500
C225        C  0.31123494  0.58275620  0.49086923    -0.10800
C226        C  0.30645589  0.54179659  0.47908569    -0.01700
C227        C  0.32819479  0.52232301  0.45506406    -0.11900
C228        C  0.35412362  0.54405540  0.44229813    -0.10300
H229        H  0.33978155  0.63624311  0.48725109     0.07600
H230        H  0.29453786  0.59827543  0.50918049     0.11300
H231        H  0.32470882  0.49076421  0.44551614     0.11000
H232        H  0.37046015  0.52871798  0.42335424     0.07600
C233        C  0.38186122  0.87825517  0.39004086    -0.11500
C234        C  0.38547465  0.89915800  0.42598754     0.05600
C235        C  0.41155989  0.89128972  0.44914308    -0.10300
C236        C  0.43328930  0.86227655  0.43692670    -0.11900
C237        C  0.42903999  0.84027550  0.40161937    -0.01700
C238        C  0.40332999  0.84905060  0.37805926    -0.10800
C239        C  0.36074762  0.92638287  0.44048016     0.05600
H240        H  0.41488507  0.90719029  0.47693049     0.07600
H241        H  0.45291760  0.85624910  0.45559936     0.11000
H242        H  0.39948208  0.83280512  0.35056417     0.11300
H243        H  0.36178055  0.88332994  0.37189366     0.07600
C244        C  0.34632030  0.95469860  0.41503565    -0.11500
C245        C  0.32075022  0.97694784  0.42769943    -0.10800
C246        C  0.30896071  0.97057689  0.46568705    -0.01700
C247        C  0.32384961  0.94323740  0.49142841    -0.11900
C248        C  0.34965665  0.92156379  0.47906952    -0.10300
H249        H  0.35456949  0.95909652  0.38520298     0.07600
H250        H  0.30969345  0.99826957  0.40761300     0.11300
H251        H  0.31485427  0.93771725  0.52073363     0.11000
H252        H  0.36006729  0.89954896  0.49906592     0.07600
C253        C  0.11685545  0.88670804  0.38668918    -0.11500
C254        C  0.11783642  0.89861167  0.42660137     0.05600
C255        C  0.09529079  0.88323619  0.45234071    -0.10300
C256        C  0.07298629  0.85561154  0.43880452    -0.11900
C257        C  0.07255098  0.84293912  0.39914481    -0.01700
C258        C  0.09442345  0.85936125  0.37310496    -0.10800
C259        C  0.14320702  0.92513627  0.44157495     0.05600
H260        H  0.09503047  0.89227599  0.48309317     0.07600
H261        H  0.05633944  0.84370175  0.45955511     0.11000
H262        H  0.09485566  0.85002643  0.34242019     0.11300
H263        H  0.13409575  0.89735438  0.36614403     0.07600
C264        C  0.15531650  0.95720876  0.41823215    -0.11500
C265        C  0.18077550  0.97975021  0.43104742    -0.10800
C266        C  0.19472078  0.97050791  0.46728657    -0.01700
C267        C  0.18205149  0.93973583  0.49134393    -0.11900
C268        C  0.15657592  0.91723606  0.47865194    -0.10300
H269        H  0.14524591  0.96469477  0.38990975     0.07600
H270        H  0.18990367  0.00395450  0.41240312     0.11300
H271        H  0.19257545  0.93220443  0.51942120     0.11000
H272        H  0.14814798  0.89252465  0.49723036     0.07600
C273        C  0.09936714  0.45194375  0.92745706    -0.11500
C274        C  0.11120983  0.42004706  0.95123261     0.05600
C275        C  0.09734433  0.41192319  0.98781857    -0.10300
C276        C  0.07127598  0.43371978  0.99942413    -0.11900
C277        C  0.05872203  0.46420364  0.97484513    -0.01700
C278        C  0.07348572  0.47407975  0.93934383    -0.10800
C279        C  0.13594740  0.39271944  0.93640195     0.05600
H280        H  0.10576739  0.38733234  0.00657927     0.07600
H281        H  0.06023067  0.42587526  0.02703553     0.11000
H282        H  0.06454072  0.49817429  0.92042772     0.11300
H283        H  0.10981699  0.45919054  0.89932815     0.07600
C284        C  0.13415672  0.37684247  0.89794643    -0.11500
C285        C  0.15528051  0.34767099  0.88483957    -0.10800
C286        C  0.17896799  0.33382674  0.90969472    -0.01700
C287        C  0.18160451  0.35087969  0.94767471    -0.11900
C288        C  0.16009712  0.37982046  0.96104474    -0.10300
H289        H  0.11564599  0.38577835  0.87843910     0.07600
H290        H  0.15274505  0.33543855  0.85526796     0.11300
H291        H  0.19966303  0.34091012  0.96740741     0.11000
H292        H  0.16208442  0.39175682  0.99078491     0.07600
C293        C  0.36142709  0.34989447  0.95205530    -0.11500
C294        C  0.36809550  0.38669500  0.93144455     0.05600
C295        C  0.35083178  0.39577728  0.89731375    -0.10300
C296        C  0.32827179  0.36846787  0.88384648    -0.11900
C297        C  0.32173940  0.33217354  0.90486475    -0.01700
C298        C  0.33821525  0.32344527  0.93932752    -0.10800
C299        C  0.39337568  0.41452913  0.94513741     0.05600
H300        H  0.35456095  0.42395664  0.88087464     0.07600
H301        H  0.31579502  0.37580378  0.85708740     0.11000
H302        H  0.33401664  0.29518567  0.95557632     0.11300
H303        H  0.37462737  0.34054422  0.97754665     0.07600
C304        C  0.40226600  0.41498690  0.98513355    -0.11500
C305        C  0.42776406  0.43742263  0.99747101    -0.10800
C306        C  0.44425766  0.46178771  0.97075823    -0.01700
C307        C  0.43444897  0.46375169  0.93133902    -0.11900
C308        C  0.40970772  0.43974387  0.91845727    -0.10300
H309        H  0.38989972  0.39755218  0.00716796     0.07600
H310        H  0.43506947  0.43497761  0.02793070     0.11300
H311        H  0.44649535  0.48286252  0.91025722     0.11000
H312        H  0.40412014  0.44022054  0.88735758     0.07600
C313        C  0.15978529  0.61061101  0.04822675    -0.11500
C314        C  0.13303013  0.60424399  0.07039944     0.05600
C315        C  0.12885061  0.62637173  0.10551306    -0.10300
C316        C  0.15066105  0.65493920  0.11790030    -0.11900
C317        C  0.17725132  0.66192753  0.09553958    -0.01700
C318        C  0.18183659  0.63907894  0.06082468    -0.10800
C319        C  0.10843843  0.57676276  0.05598649     0.05600
H320        H  0.10820759  0.62251441  0.12279194     0.07600
H321        H  0.14643401  0.67198776  0.14482798     0.11000
H322        H  0.20210647  0.64379725  0.04304291     0.11300
H323        H  0.16349233  0.59376677  0.02105493     0.07600
C324        C  0.09817597  0.58003747  0.01684967    -0.11500
C325        C  0.07255782  0.55793785  0.00438342    -0.10800
C326        C  0.05700662  0.53186086  0.03066538    -0.01700
C327        C  0.06801900  0.52698857  0.06926691    -0.11900
C328        C  0.09342172  0.54959961  0.08196445    -0.10300
H329        H  0.10911437  0.60111570  0.99642706     0.07600
H330        H  0.06422080  0.56214320  0.97451594     0.11300
H331        H  0.05643985  0.50663634  0.08976739     0.11000
H332        H  0.10108277  0.54639764  0.11222694     0.07600
C333        C  0.40035822  0.53819165  0.07372306    -0.11500
C334        C  0.39079449  0.57410413  0.05376555     0.05600
C335        C  0.40716581  0.58683361  0.02013871    -0.10300
C336        C  0.43284210  0.56493021  0.00743814    -0.11900
C337        C  0.44278821  0.52990321  0.02802885    -0.01700
C338        C  0.42615033  0.51632468  0.06097798    -0.10800
C339        C  0.36503912  0.59969146  0.06895049     0.05600
H340        H  0.40084524  0.61468061  0.00444267     0.07600
H341        H  0.44559963  0.57605913  0.98217111     0.11000
H342        H  0.43348737  0.48936587  0.07733219     0.11300
H343        H  0.38809723  0.52725928  0.09943365     0.07600
C344        C  0.34495149  0.61973329  0.04272083    -0.11500
C345        C  0.32288772  0.64732358  0.05670673    -0.10800
C346        C  0.32027957  0.65548179  0.09729730    -0.01700
C347        C  0.33943161  0.63408315  0.12370497    -0.11900
C348        C  0.36156409  0.60655502  0.10969988    -0.10300
H349        H  0.34660652  0.61458489  0.01122416     0.07600
H350        H  0.30835487  0.66303103  0.03558577     0.11300
H351        H  0.33803907  0.63963797  0.15517255     0.11000
H352        H  0.37681367  0.59201914  0.13073046     0.07600
C353        C  0.00946539  0.61295765  0.10484059    -0.11500
C354        C  0.00148176  0.59386787  0.14062141     0.05600
C355        C  0.49193169  0.55256862  0.14069183    -0.10300
C356        C  0.49105827  0.53029928  0.10556386    -0.11900
C357        C  0.99891006  0.54931741  0.06979736    -0.01700
C358        C  0.00788667  0.59087831  0.06947813    -0.10800
C359        C  0.00277473  0.61703204  0.17790179     0.05600
H360        H  0.48585159  0.53735823  0.16806224     0.07600
H361        H  0.48477459  0.49795864  0.10629470     0.11000
H362        H  0.01423166  0.60578060  0.04206932     0.11300
H363        H  0.01670434  0.64494953  0.10432071     0.07600
C364        C  0.02992173  0.63660800  0.18973030    -0.11500
C365        C  0.03067497  0.65980391  0.22447201    -0.10800
C366        C  0.00409450  0.66440387  0.24724815    -0.01700
C367        C  0.47716542  0.64397426  0.23578237    -0.11900
C368        C  0.47660893  0.62009845  0.20156999    -0.10300
H369        H  0.05037631  0.63422393  0.17187721     0.07600
H370        H  0.05158555  0.67571121  0.23252058     0.11300
H371        H  0.45637422  0.64723559  0.25283952     0.11000
H372        H  0.45547724  0.60514740  0.19282271     0.07600
C373        C  0.15579300  0.45614184  0.58649452    -0.11500
C374        C  0.14016800  0.42958139  0.56049152     0.05600
C375        C  0.14993553  0.42689368  0.52110724    -0.10300
C376        C  0.17561364  0.44874646  0.50843456    -0.11900
C377        C  0.19187190  0.47399325  0.53474913    -0.01700
C378        C  0.18130447  0.47850104  0.57359827    -0.10800
C379        C  0.11541269  0.40209828  0.57483965     0.05600
H380        H  0.13861799  0.40629725  0.50057073     0.07600
H381        H  0.18357697  0.44469837  0.47842347     0.11000
H382        H  0.19349173  0.49807214  0.59422925     0.11300
H383        H  0.14859077  0.45899830  0.61693597     0.07600
C384        C  0.11923429  0.37994968  0.61012838    -0.11500
C385        C  0.09768817  0.35049168  0.62161126    -0.10800
C386        C  0.07173194  0.34263339  0.59816668    -0.01700
C387        C  0.06727865  0.36589647  0.56363666    -0.11900
C388        C  0.08900459  0.39522465  0.55198252    -0.10300
H389        H  0.13952886  0.38419987  0.62807459     0.07600
H390        H  0.10170838  0.33326287  0.64853217     0.11300
H391        H  0.04745704  0.36064462  0.54507930     0.11000
H392        H  0.08541537  0.41212722  0.52477740     0.07600
C393        C  0.38883211  0.39301699  0.61097729    -0.11500
C394        C  0.38328770  0.39821198  0.57042828     0.05600
C395        C  0.40139861  0.37648788  0.54325352    -0.10300
C396        C  0.42392768  0.34910882  0.55632900    -0.11900
C397        C  0.42869778  0.34261637  0.59689723    -0.01700
C398        C  0.41124993  0.36539473  0.62409878    -0.10800
C399        C  0.35734637  0.42388588  0.55649497     0.05600
H400        H  0.39779008  0.38024484  0.51182447     0.07600
H401        H  0.43701607  0.33215163  0.53460690     0.11000
H402        H  0.41435940  0.36109835  0.65554681     0.11300
H403        H  0.37500494  0.40909106  0.63255340     0.07600
C404        C  0.33737472  0.40834336  0.52756985    -0.11500
C405        C  0.31186923  0.43102465  0.51574415    -0.10800
C406        C  0.30600300  0.46983874  0.53224720    -0.01700
C407        C  0.32619382  0.48612023  0.56041935    -0.11900
C408        C  0.35159984  0.46309200  0.57276121    -0.10300
H409        H  0.34098109  0.37802544  0.51494523     0.07600
H410        H  0.29632804  0.41803054  0.49413514     0.11300
H411        H  0.32186187  0.51607765  0.57342657     0.11000
H412        H  0.36672245  0.47580467  0.59497978     0.07600
C413        C  0.35338869  0.04756043  0.56376645    -0.11500
C414        C  0.36227076  0.08341438  0.54324098     0.05600
C415        C  0.34502761  0.09613663  0.51038534    -0.10300
C416        C  0.31886692  0.07433674  0.49915432    -0.11900
C417        C  0.30957621  0.03940022  0.52041439    -0.01700
C418        C  0.32727640  0.02561482  0.55232357    -0.10800
C419        C  0.38774687  0.10952042  0.55791791     0.05600
H420        H  0.35105053  0.12391659  0.49436789     0.07600
H421        H  0.30536209  0.08528881  0.47444147     0.11000
H422        H  0.32051825  0.99847849  0.56882204     0.11300
H423        H  0.36640861  0.03689036  0.58900533     0.07600
C424        C  0.38983649  0.11863860  0.59832355    -0.11500
C425        C  0.41142354  0.14691809  0.61202840    -0.10800
C426        C  0.43165976  0.16637314  0.58573569    -0.01700
C427        C  0.43063233  0.15596933  0.54556154    -0.11900
C428        C  0.40863702  0.12800268  0.53168854    -0.10300
H429        H  0.37387131  0.10528088  0.61916251     0.07600
H430        H  0.41190717  0.15421083  0.64323018     0.11300
H431        H  0.44598124  0.17063763  0.52475544     0.11000
H432        H  0.40761867  0.12128555  0.50040870     0.07600
C433        C  0.15228288  0.08366781  0.50940249    -0.11500
C434        C  0.14388934  0.08475417  0.54950226     0.05600
C435        C  0.16077064  0.06058307  0.57647616    -0.10300
C436        C  0.18581338  0.03718012  0.56382113    -0.11900
C437        C  0.19517527  0.03853269  0.52423180    -0.01700
C438        C  0.17785877  0.06143191  0.49710767    -0.10800
C439        C  0.11867961  0.11244862  0.56315138     0.05600
H440        H  0.15542799  0.06074221  0.60763915     0.07600
H441        H  0.19857004  0.01925528  0.58520701     0.11000
H442        H  0.18464825  0.06300124  0.46641341     0.11300
H443        H  0.13944222  0.10056640  0.48737134     0.07600
C444        C  0.11268611  0.14992336  0.54339117    -0.11500
C445        C  0.08989370  0.17667086  0.55668300    -0.10800
C446        C  0.07310238  0.16730358  0.59072103    -0.01700
C447        C  0.07880332  0.13006314  0.61060061    -0.11900
C448        C  0.10103595  0.10264540  0.59666687    -0.12300
H449        H  0.12618078  0.15945101  0.51823807     0.07600
H450        H  0.08625773  0.20555810  0.54124404     0.11300
H451        H  0.06600926  0.12215318  0.63691305     0.11000
H452        H  0.10436701  0.07386845  0.61230221     0.07600
C453        C  0.50167389  0.37880778  0.89964378    -0.11500
C454        C  0.00582613  0.39847705  0.86299794     0.05600
C455        C  0.00908305  0.44150070  0.86153036    -0.10300
C456        C  0.00757148  0.46460188  0.89609351    -0.11900
C457        C  0.00311514  0.44495255  0.93250882    -0.01700
C458        C  0.50043063  0.40197233  0.93431065    -0.10800
C459        C  0.00515170  0.37439258  0.82617848     0.05600
H460        H  0.01194591  0.45727524  0.83357966     0.07600
H461        H  0.00957565  0.49789729  0.89453138     0.11000
H462        H  0.49717561  0.38659154  0.96238852     0.11300
H463        H  0.49933003  0.34556630  0.90135687     0.07600
C464        C  0.02733348  0.38047692  0.79675906    -0.11500
C465        C  0.02644779  0.35718976  0.76205314    -0.10800
C466        C  0.00306232  0.32809873  0.75615302    -0.01700
C467        C  0.48058469  0.32280782  0.78532393    -0.11900
C468        C  0.48172930  0.34556178  0.82007526    -0.10300
H469        H  0.04560305  0.40264624  0.80098565     0.07600
H470        H  0.04405132  0.36174317  0.74000420     0.11300
H471        H  0.46240161  0.30038847  0.78169381     0.11000
H472        H  0.46414491  0.34085589  0.84213427     0.07600
C473        C  0.33768903  0.10542964  0.94762031    -0.11500
C474        C  0.36335811  0.09728908  0.92381647     0.05600
C475        C  0.36610259  0.11788239  0.88751381    -0.10300
C476        C  0.34443737  0.14718228  0.87602987    -0.11900
C477        C  0.31938817  0.15654105  0.90047019    -0.01700
C478        C  0.31582863  0.13464797  0.93597406    -0.10800
C479        C  0.38857039  0.07031637  0.93806695     0.05600
H480        H  0.38574233  0.11268992  0.86871644     0.07600
H481        H  0.34772466  0.16321698  0.84829139     0.11000
H482        H  0.29668569  0.14098276  0.95528489     0.11300
H483        H  0.33481745  0.08969192  0.97558367     0.07600
C484        C  0.39908854  0.07391839  0.97712573    -0.11500
C485        C  0.42506469  0.05251097  0.98958314    -0.10800
C486        C  0.44100502  0.02688734  0.96336957    -0.01700
C487        C  0.42983820  0.02162990  0.92483489    -0.11900
C488        C  0.40393733  0.04340000  0.91218869    -0.10300
H489        H  0.38806344  0.09478809  0.99759237     0.07600
H490        H  0.43340956  0.05701288  0.01939741     0.11300
H491        H  0.44172184  0.00170368  0.90430044     0.11000
H492        H  0.39619999  0.03972988  0.88201941     0.07600
C493        C  0.08618190  0.09135940  0.96755442    -0.11500
C494        C  0.10809201  0.07283825  0.94305842     0.05600
C495        C  0.10364691  0.03179247  0.93072990    -0.10300
C496        C  0.07756687  0.00981802  0.94265687    -0.11900
C497        C  0.05544648  0.02896342  0.96638765    -0.01700
C498        C  0.06006122  0.06971394  0.97889922    -0.10800
C499        C  0.13446950  0.09763180  0.92913896     0.05600
H500        H  0.12025423  0.01691478  0.91182730     0.07600
H501        H  0.07425725  0.97836240  0.93270005     0.11000
H502        H  0.04313126  0.08493488  0.99709313     0.11300
H503        H  0.08884837  0.12310760  0.97698998     0.07600
C504        C  0.14075824  0.10113552  0.88864433    -0.11500
C505        C  0.16242846  0.12969649  0.87514129    -0.10800
C506        C  0.17841485  0.15496033  0.90195906    -0.01700
C507        C  0.17331952  0.14961102  0.94259948    -0.11900
C508        C  0.15145525  0.12142646  0.95601385    -0.10300
H509        H  0.12780476  0.08331100  0.86734276     0.07600
H510        H  0.16597113  0.13288054  0.84365962     0.11300
H511        H  0.18538846  0.16833521  0.96404956     0.11000
H512        H  0.14714444  0.11902640  0.98740644     0.07600
C513        C  0.98440711  0.10745430  0.88695908    -0.11500
C514        C  0.49661173  0.08995799  0.85250469     0.05600
C515        C  0.51061434  0.05110491  0.85427089    -0.10300
C516        C  0.51159912  0.02944268  0.88976243    -0.11900
C517        C  0.49917950  0.04665349  0.92415692    -0.01700
C518        C  0.98610280  0.08617150  0.92276662    -0.10800
C519        C  0.49574828  0.11279175  0.81497606     0.05600
H520        H  0.52022688  0.03723115  0.82799645     0.07600
H521        H  0.52160188  0.99886051  0.89032700     0.11000
H522        H  0.97669288  0.10003700  0.94914689     0.11300
H523        H  0.97393120  0.13774104  0.88618260     0.07600
C524        C  0.46812359  0.12887466  0.80045982    -0.11500
C525        C  0.46790413  0.15279748  0.76610659    -0.10800
C526        C  0.49541426  0.16154315  0.74645448    -0.01700
C527        C  0.02281754  0.14417492  0.76031825    -0.11900
C528        C  0.02293862  0.11971203  0.79413754    -0.10300
H529        H  0.44688939  0.12346154  0.81607610     0.07600
H530        H  0.44654866  0.16616122  0.75609829     0.11300
H531        H  0.04430524  0.15051442  0.74561854     0.11000
H532        H  0.04445968  0.10755217  0.80495562     0.07600
C533        C  0.40504981  0.94415873  0.07341149    -0.11500
C534        C  0.38959503  0.91659313  0.04826146     0.05600
C535        C  0.39896203  0.91314832  0.00878064    -0.10300
C536        C  0.42441003  0.93502983  0.99532072    -0.11900
C537        C  0.44071533  0.96094403  0.02099862    -0.01700
C538        C  0.43024282  0.96653260  0.05973864    -0.10800
C539        C  0.36556764  0.88886897  0.06390341     0.05600
H540        H  0.38759311  0.89190256  0.98890883     0.07600
H541        H  0.43221489  0.93042350  0.96531432     0.11000
H542        H  0.44237968  0.98681391  0.07977939     0.11300
H543        H  0.39804355  0.94763492  0.10387244     0.07600
C544        C  0.37070504  0.86722319  0.09917137    -0.11500
C545        C  0.34932169  0.83864220  0.11278952    -0.10800
C546        C  0.32220836  0.83113930  0.09153595    -0.01700
C547        C  0.31674305  0.85339926  0.05661583    -0.11900
C548        C  0.33834029  0.88187572  0.04279959    -0.10300
H549        H  0.39172558  0.87152550  0.11565265     0.07600
H550        H  0.35426081  0.82204741  0.13982147     0.11300
H551        H  0.29605249  0.84833459  0.03967142     0.11000
H552        H  0.33387095  0.89831213  0.01554826     0.07600
C553        C  0.15063639  0.86503730  0.03680371    -0.11500
C554        C  0.13352134  0.89025488  0.06229272     0.05600
C555        C  0.14037778  0.88976052  0.10283622    -0.10300
C556        C  0.16287332  0.86320281  0.11776029    -0.11900
C557        C  0.17913935  0.83676454  0.09240952    -0.01700
C558        C  0.17322879  0.83869785  0.05165834    -0.10800
C559        C  0.10715625  0.91449083  0.04697394     0.05600
H560        H  0.12742486  0.90858896  0.12324060     0.07600
H561        H  0.16689418  0.86252399  0.14930260     0.11000
H562        H  0.18538615  0.81887500  0.03129802     0.11300
H563        H  0.14613766  0.86514636  0.00536230     0.07600
C564        C  0.08666455  0.89621633  0.02015174    -0.11500
C565        C  0.06083056  0.91757338  0.00717673    -0.10800
C566        C  0.05502668  0.95776446  0.02040983    -0.01700
C567        C  0.07563684  0.97665119  0.04655968    -0.11900
C568        C  0.10143948  0.95504380  0.05998788    -0.10300
H569        H  0.09012830  0.86484789  0.01008116     0.07600
H570        H  0.04500973  0.90251245  0.98717890     0.11300
H571        H  0.07137856  0.00766352  0.05713587     0.11000
H572        H  0.11689260  0.96993862  0.08052611     0.07600
C573        C  0.52055477  0.87314083  0.19377979    -0.11500
C574        C  0.49382467  0.87594876  0.17099198     0.05600
C575        C  0.96684795  0.85711153  0.18447575    -0.10300
C576        C  0.96681141  0.83517895  0.22006752    -0.11900
C577        C  0.49390553  0.83117410  0.24209797    -0.01700
C578        C  0.52066285  0.85067760  0.22884730    -0.10800
C579        C  0.49453256  0.89828097  0.13308236     0.05600
H580        H  0.94593866  0.85923254  0.16738611     0.07600
H581        H  0.94599408  0.81996460  0.22952147     0.11000
H582        H  0.54184262  0.84789010  0.24527525     0.11300
H583        H  0.54162654  0.88732341  0.18379634     0.07600
C584        C  0.50722444  0.93800622  0.13138308    -0.11500
C585        C  0.50878181  0.95903790  0.09561290    -0.10800
C586        C  0.49811752  0.94050633  0.06084594    -0.01700
C587        C  0.98583294  0.90048479  0.06223086    -0.11900
C588        C  0.98372054  0.87964667  0.09830006    -0.10300
H589        H  0.51554579  0.95296279  0.15788996     0.07600
H590        H  0.51789631  0.99015260  0.09507534     0.11300
H591        H  0.97744793  0.88584813  0.03560748     0.11000
H592        H  0.97410776  0.84881321  0.09900760     0.07600
C593        C  0.49810991  0.96505775  0.02394451     0.01600
C594        C  0.52626005  0.97838917  0.00792349     0.01600
C595        C  0.52650611  0.00788739  0.97737573     0.01600
C596        C  0.99857789  0.02151679  0.96068502     0.01600
C597        C  0.97032806  0.00786134  0.97642275     0.01600
C598        C  0.97014946  0.97913431  0.00770415     0.01600
O599        O  0.97733527  0.20673551  0.58386916    -0.82500
C600        C  0.50261625  0.30134310  0.72110910     0.96900
O601        O  0.97850614  0.28159204  0.71323369    -0.71600
O602        O  0.95198378  0.30190870  0.64685499    -0.75200
Al603      Al  0.96479324  0.25103226  0.66881345     1.49000
C604        C  0.95024785  0.31035143  0.61062812     0.92100
O605        O  0.52513036  0.30474102  0.59150581    -0.81400
O606        O  0.54813206  0.20080579  0.64349007    -0.75000
Al607      Al  0.00124249  0.25550805  0.59062239     1.90100
O608        O  0.55805641  0.28444691  0.63631366    -0.74000
O609        O  0.52059786  0.21324967  0.71037742    -0.73900
O610        O  0.52638859  0.29666067  0.70059425    -0.79500
O611        O  0.97299807  0.20021790  0.69442492    -0.77700
O612        O  0.50041189  0.25180665  0.64325838    -1.13900
O613        O  0.94357286  0.21965423  0.63015719    -0.73100
C614        C  0.95210977  0.19914040  0.60051690     0.97600
C615        C  0.55034772  0.30914743  0.60925189     0.94000
Al616      Al  0.53532139  0.24898445  0.67027582     1.55600
O617        O  0.96586568  0.29029004  0.58583135    -0.77700
C618        C  0.99638591  0.19268816  0.71493735     0.98200
C619        C  0.55127905  0.19766278  0.60669252     0.93100
O620        O  0.53698457  0.22152119  0.58356223    -0.83000
C621        C  0.50160517  0.47015697  0.96858256     0.01600
C622        C  0.97296044  0.48226608  0.98430416     0.01600
C623        C  0.97212173  0.51014634  0.01634551     0.01600
C624        C  0.49976110  0.52416257  0.03343475     0.01600
C625        C  0.52822859  0.51186302  0.01754816     0.01600
C626        C  0.52914787  0.48375855  0.98600851     0.01600
O627        O  0.52550468  0.70666116  0.41105588    -0.82500
C628        C  0.99535350  0.80309722  0.27617707     0.96900
O629        O  0.52035027  0.78538168  0.28374505    -0.71600
O630        O  0.54866986  0.80283846  0.34925385    -0.75200
Al631      Al  0.53535235  0.75283958  0.32613360     1.49000
C632        C  0.55078264  0.81082658  0.38548416     0.92100
O633        O  0.97583818  0.80280592  0.40681381    -0.81400
O634        O  0.95280932  0.69959903  0.35466467    -0.75000
Al635      Al  0.50060482  0.75452432  0.40592239     1.90100
O636        O  0.94246922  0.78301613  0.36230291    -0.74000
O637        O  0.97854133  0.71277733  0.28676647    -0.73900
O638        O  0.97170056  0.79552323  0.29612359    -0.79500
O639        O  0.52723146  0.70314821  0.29860267    -0.77700
O640        O  0.00022122  0.75182299  0.35304352    -1.13900
O641        O  0.55757350  0.72006077  0.36290792    -0.73100
C642        C  0.55027364  0.69956453  0.39318418     0.97600
C643        C  0.95039612  0.80720882  0.38965674     0.94000
Al644      Al  0.96453609  0.74800661  0.32739426     1.55600
O645        O  0.53534937  0.79050596  0.41026329    -0.77700
C646        C  0.50326961  0.69440712  0.27973598     0.98200
C647        C  0.95097562  0.69536464  0.39150396     0.93100
O648        O  0.96586083  0.71902098  0.41414269    -0.83000
C649        C  0.75172543  0.97711060  0.46265565     0.01600
C650        C  0.72387181  0.99056553  0.47937988     0.01600
C651        C  0.72425978  0.01902592  0.51093344     0.01600
C652        C  0.75272115  0.03230909  0.52650726     0.01600
C653        C  0.78042292  0.01882103  0.50958768     0.01600
C654        C  0.77997629  0.99019530  0.47852612     0.01600
O655        O  0.72455168  0.69839889  0.09083909    -0.82500
C656        C  0.75420286  0.80409255  0.21895084     0.96900
O657        O  0.72928144  0.78586416  0.21240253    -0.71600
O658        O  0.70248408  0.80030637  0.14530477    -0.75200
Al659      Al  0.71448460  0.75134537  0.17165807     1.49000
C660        C  0.70041667  0.80527767  0.10854920     0.92100
O661        O  0.77511274  0.79392251  0.08847697    -0.81400
O662        O  0.79736744  0.69525172  0.14814917    -0.75000
Al663      Al  0.74983549  0.74622154  0.09264363     1.90100
O664        O  0.80779544  0.77775784  0.13514132    -0.74000
O665        O  0.77044554  0.71318115  0.21422040    -0.73900
O666        O  0.77794960  0.79519118  0.19976343    -0.79500
O667        O  0.72174915  0.70312924  0.20210352    -0.77700
O668        O  0.74986146  0.74767360  0.14548763    -1.13900
O669        O  0.69194817  0.71725396  0.13650581    -0.73100
C670        C  0.69923974  0.69395794  0.10823122     0.97600
C671        C  0.80041396  0.79949182  0.10571272     0.94000
Al672      Al  0.78525869  0.74550085  0.17188992     1.55600
O673        O  0.71536139  0.78232249  0.08542919    -0.77700
C674        C  0.74557230  0.69522261  0.22167658     0.98200
C675        C  0.79924696  0.68808941  0.11173093     0.93100
O676        O  0.78425025  0.70970332  0.08741343    -0.83000
C677        C  0.74959518  0.53464101  0.47434174     0.01600
C678        C  0.77755562  0.52099847  0.49069702     0.01600
C679        C  0.77740862  0.49144671  0.52114436     0.01600
C680        C  0.74935674  0.47815355  0.53747380     0.01600
C681        C  0.72131958  0.49252541  0.52176554     0.01600
C682        C  0.72149614  0.52127764  0.49055557     0.01600
O683        O  0.77323262  0.19554781  0.90735906    -0.82500
C684        C  0.74419223  0.30494153  0.78179048     0.96900
O685        O  0.76836728  0.28444309  0.78671407    -0.71600
O686        O  0.79641433  0.29768601  0.85293294    -0.75200
Al687      Al  0.78311986  0.24924214  0.82707955     1.49000
C688        C  0.79949645  0.30188438  0.88961854     0.92100
O689        O  0.72507559  0.29381213  0.91242946    -0.81400
O690        O  0.70017955  0.19641437  0.85137286    -0.75000
Al691      Al  0.74916437  0.24476762  0.90689336     1.90100
O692        O  0.69114707  0.27893471  0.86686221    -0.74000
O693        O  0.72611827  0.21621491  0.78447803    -0.73900
O694        O  0.72070833  0.29771079  0.80222105    -0.79500
O695        O  0.77392453  0.20130994  0.79739599    -0.77700
O696        O  0.74828242  0.24711326  0.85418152    -1.13900
O697        O  0.80571847  0.21408801  0.86144841    -0.73100
C698        C  0.79814991  0.19022135  0.88922648     0.97600
C699        C  0.69965798  0.30063073  0.89580040     0.94000
Al700      Al  0.71256753  0.24719315  0.82862184     1.55600
O701        O  0.78483683  0.27906546  0.91327486    -0.77700
C702        C  0.75022877  0.19659358  0.77666329     0.98200
C703        C  0.69883200  0.18837001  0.88772616     0.93100
O704        O  0.71394414  0.20964740  0.91224431    -0.83000
C705        C  0.73522016  0.39011245  0.60872882    -0.11500
C706        C  0.74630999  0.40729573  0.64401040     0.05600
C707        C  0.75944263  0.44676803  0.64365916    -0.10300
C708        C  0.76075296  0.46927042  0.60870316    -0.11900
C709        C  0.74959302  0.45228909  0.57346478    -0.01700
C710        C  0.73722183  0.41231498  0.57346337    -0.10800
C711        C  0.74494502  0.38381578  0.68111045     0.05600
H712        H  0.76807565  0.46046839  0.67062317     0.07600
H713        H  0.77000071  0.50031081  0.60919760     0.11000
H714        H  0.72858643  0.39882327  0.54642258     0.11300
H715        H  0.72532197  0.35943218  0.60847531     0.07600
C716        C  0.71722853  0.36683033  0.69429808    -0.11500
C717        C  0.71645932  0.34320203  0.72882174    -0.10800
C718        C  0.74352586  0.33567950  0.74995531    -0.01700
C719        C  0.77102863  0.35369135  0.73723410    -0.11900
C720        C  0.77167944  0.37784539  0.70324580    -0.10300
H721        H  0.69634159  0.37150816  0.67764768     0.07600
H722        H  0.69508202  0.32918900  0.73790089     0.11300
H723        H  0.79219145  0.34818571  0.75305082     0.11000
H724        H  0.79326340  0.39071360  0.69344782     0.07600
C725        C  0.77223244  0.62461135  0.30281341    -0.11500
C726        C  0.74595143  0.62188029  0.32634349     0.05600
C727        C  0.71867101  0.64038822  0.31342673    -0.10300
C728        C  0.71793378  0.66227825  0.27786705    -0.11900
C729        C  0.74461882  0.66651788  0.25524814    -0.01700
C730        C  0.77163403  0.64700316  0.26770530    -0.10800
C731        C  0.74730346  0.60027422  0.36458573     0.05600
H732        H  0.69808211  0.63821797  0.33104728     0.07600
H733        H  0.69694041  0.67745356  0.26899760     0.11000
H734        H  0.79250532  0.64994248  0.25074659     0.11300
H735        H  0.79351756  0.61062490  0.31230690     0.07600
C736        C  0.76023300  0.56075165  0.36691960    -0.11500
C737        C  0.76130630  0.54000680  0.40289495    -0.10800
C738        C  0.74994180  0.55868655  0.43718009    -0.01700
C739        C  0.73782274  0.59870305  0.43521393    -0.11900
C740        C  0.73619501  0.61921796  0.39898823    -0.10300
H741        H  0.76887830  0.54560533  0.34073168     0.07600
H742        H  0.77055716  0.50899708  0.40395229     0.11300
H743        H  0.72924116  0.61365524  0.46151964     0.11000
H744        H  0.72653737  0.64998870  0.39783030     0.07600
C745        C  0.72871286  0.88041215  0.29566080    -0.11500
C746        C  0.75465575  0.88230478  0.31991402     0.05600
C747        C  0.78132417  0.86118318  0.30910170    -0.10300
C748        C  0.78184174  0.83762574  0.27461477    -0.11900
C749        C  0.75545401  0.83424173  0.25119093    -0.01700
C750        C  0.72898623  0.85613176  0.26172462    -0.10800
C751        C  0.75369169  0.90609333  0.35667510     0.05600
H752        H  0.80156619  0.86268918  0.32753452     0.07600
H753        H  0.80234096  0.82053146  0.26725651     0.11000
H754        H  0.70835836  0.85377180  0.24410988     0.11300
H755        H  0.70799706  0.89668544  0.30370177     0.07600
C756        C  0.74839469  0.94867766  0.35524332    -0.11500
C757        C  0.74762792  0.97150529  0.38999581    -0.10800
C758        C  0.75140443  0.95184448  0.42653504    -0.01700
C759        C  0.75643913  0.90918639  0.42815874    -0.11900
C760        C  0.75777467  0.88637491  0.39323261    -0.10300
H761        H  0.74536322  0.96424740  0.32720323     0.07600
H762        H  0.74430901  0.00460961  0.38849682     0.11300
H763        H  0.75967799  0.89387045  0.45627450     0.11000
H764        H  0.76176445  0.85340640  0.39464274     0.07600
C765        C  0.72711497  0.14820191  0.68001596    -0.11500
C766        C  0.75367773  0.12662145  0.66979907     0.05600
C767        C  0.77870884  0.12627832  0.69579931    -0.10300
C768        C  0.77741673  0.14811181  0.73126375    -0.11900
C769        C  0.75092018  0.17016987  0.74134390    -0.01700
C770        C  0.72567061  0.16960660  0.71557090    -0.10800
C771        C  0.75479971  0.10350074  0.63252678     0.05600
H772        H  0.79940696  0.10970723  0.68830158     0.07600
H773        H  0.79726188  0.14825202  0.75043867     0.11000
H774        H  0.70496168  0.18644502  0.72244248     0.11300
H775        H  0.70742258  0.14825910  0.66056266     0.07600
C776        C  0.76328158  0.06181723  0.63288179    -0.11500
C777        C  0.76259944  0.03899992  0.59814712    -0.10800
C778        C  0.75396927  0.05772004  0.56253243    -0.01700
C779        C  0.74606391  0.09959539  0.56179814    -0.11900
C780        C  0.74624584  0.12235804  0.59678296    -0.10300
H781        H  0.76956852  0.04666739  0.66022563     0.07600
H782        H  0.76837007  0.00649950  0.59904003     0.11300
H783        H  0.73936085  0.11427645  0.53439372     0.11000
H784        H  0.73971232  0.15459370  0.59603866     0.07600
C785        C  0.65259343  0.59119413  0.48910385    -0.11500
C786        C  0.64048304  0.58403956  0.45124653     0.05600
C787        C  0.65396794  0.55346599  0.42738788    -0.10300
C788        C  0.67976508  0.53188619  0.44046186    -0.11900
C789        C  0.69236234  0.54043345  0.47762703    -0.01700
C790        C  0.67822307  0.56946617  0.50218614    -0.10800
C791        C  0.61550466  0.61063394  0.43573229     0.05600
H792        H  0.64490139  0.54676752  0.39833325     0.07600
H793        H  0.69037540  0.50931984  0.42130425     0.11000
H794        H  0.68780523  0.57641080  0.53094276     0.11300
H795        H  0.64310668  0.61486889  0.50799386     0.07600
C796        C  0.59171291  0.62438752  0.46040950    -0.11500
C797        C  0.56988626  0.65246326  0.44643307    -0.10800
C798        C  0.57158122  0.66749922  0.40761335    -0.01700
C799        C  0.59481727  0.65285071  0.38268145    -0.11900
C800        C  0.61647885  0.62475606  0.39653690    -0.10300
H801        H  0.59014074  0.61373754  0.49064238     0.07600
H802        H  0.55220071  0.66320423  0.46626474     0.11300
H803        H  0.59660692  0.66368531  0.35251088     0.11000
H804        H  0.63470655  0.61535776  0.37690352     0.07600
C805        C  0.90109494  0.63673717  0.46378884    -0.11500
C806        C  0.88504714  0.60978343  0.43866158     0.05600
C807        C  0.89271439  0.60880515  0.39842283    -0.10300
C808        C  0.91491315  0.63563369  0.38330635    -0.11900
C809        C  0.93007284  0.66380307  0.40818060    -0.01700
C810        C  0.92343967  0.66334156  0.44874919    -0.10800
C811        C  0.85875911  0.58537454  0.45377273     0.05600
H812        H  0.88056727  0.58860760  0.37830931     0.07600
H813        H  0.91956734  0.63512136  0.35192837     0.11000
H814        H  0.93476729  0.68453831  0.46872070     0.11300
H815        H  0.89589842  0.63780353  0.49500996     0.07600
C816        C  0.83713918  0.60428886  0.47847834    -0.11500
C817        C  0.81123497  0.58275623  0.49086893    -0.10800
C818        C  0.80645586  0.54179664  0.47908572    -0.01700
C819        C  0.82819483  0.52232305  0.45506420    -0.11900
C820        C  0.85412355  0.54405544  0.44229824    -0.10300
H821        H  0.83978141  0.63624310  0.48725065     0.07600
H822        H  0.79453726  0.59827606  0.50918077     0.11300
H823        H  0.82470882  0.49076387  0.44551632     0.11000
H824        H  0.87046036  0.52871772  0.42335405     0.07600
C825        C  0.88186113  0.87825517  0.39004078    -0.11500
C826        C  0.88547461  0.89915800  0.42598754     0.05600
C827        C  0.91155986  0.89128975  0.44914307    -0.10300
C828        C  0.93328922  0.86227674  0.43692656    -0.11900
C829        C  0.92904008  0.84027559  0.40161937    -0.01700
C830        C  0.90333002  0.84905059  0.37805929    -0.10800
C831        C  0.86074757  0.92638286  0.44048015     0.05600
H832        H  0.91488497  0.90719037  0.47693055     0.07600
H833        H  0.95291823  0.85624916  0.45559988     0.11000
H834        H  0.89948209  0.83280507  0.35056420     0.11300
H835        H  0.86178093  0.88332981  0.37189400     0.07600
C836        C  0.84632025  0.95469861  0.41503564    -0.11500
C837        C  0.82075023  0.97694778  0.42769950    -0.10800
C838        C  0.80896066  0.97057688  0.46568703    -0.01700
C839        C  0.82384957  0.94323739  0.49142841    -0.11900
C840        C  0.84965660  0.92156380  0.47906952    -0.10300
H841        H  0.85456947  0.95909653  0.38520299     0.07600
H842        H  0.80969326  0.99826997  0.40761268     0.11300
H843        H  0.81485422  0.93771725  0.52073363     0.11000
H844        H  0.86006725  0.89954896  0.49906593     0.07600
C845        C  0.61685559  0.88670802  0.38668910    -0.11500
C846        C  0.61783646  0.89861161  0.42660139     0.05600
C847        C  0.59529081  0.88323620  0.45234070    -0.10300
C848        C  0.57298631  0.85561155  0.43880450    -0.11900
C849        C  0.57255099  0.84293914  0.39914481    -0.01700
C850        C  0.59442346  0.85936126  0.37310496    -0.10800
C851        C  0.64320703  0.92513632  0.44157489     0.05600
H852        H  0.59503047  0.89227598  0.48309309     0.07600
H853        H  0.55633945  0.84370171  0.45955512     0.11000
H854        H  0.59485567  0.85002652  0.34242023     0.11300
H855        H  0.63409550  0.89735409  0.36614444     0.07600
C856        C  0.65531645  0.95720877  0.41823215    -0.11500
C857        C  0.68077552  0.97975052  0.43104719    -0.10800
C858        C  0.69472073  0.97050793  0.46728653    -0.01700
C859        C  0.68205147  0.93973592  0.49134386    -0.11900
C860        C  0.65657586  0.91723600  0.47865201    -0.10300
H861        H  0.64524583  0.96469486  0.38990955     0.07600
H862        H  0.68990319  0.00395355  0.41240386     0.11300
H863        H  0.69257542  0.93220447  0.51942118     0.11000
H864        H  0.64814814  0.89252522  0.49722999     0.07600
C865        C  0.59936717  0.45194393  0.92745738    -0.11500
C866        C  0.61120978  0.42004706  0.95123272     0.05600
C867        C  0.59734408  0.41192305  0.98781845    -0.10300
C868        C  0.57127585  0.43371958  0.99942404    -0.11900
C869        C  0.55872198  0.46420359  0.97484523    -0.01700
C870        C  0.57348569  0.47408003  0.93934391    -0.10800
C871        C  0.63594737  0.39271944  0.93640206     0.05600
H872        H  0.60576726  0.38733130  0.00657953     0.07600
H873        H  0.56023030  0.42587487  0.02703573     0.11000
H874        H  0.56454100  0.49817393  0.92042848     0.11300
H875        H  0.60981726  0.45919104  0.89932814     0.07600
C876        C  0.63415678  0.37684273  0.89794640    -0.11500
C877        C  0.65528066  0.34767128  0.88483952    -0.10800
C878        C  0.67896808  0.33382688  0.90969472    -0.01700
C879        C  0.68160443  0.35087962  0.94767476    -0.11900
C880        C  0.66009701  0.37982026  0.96104496    -0.10300
H881        H  0.61564640  0.38577861  0.87843929     0.07600
H882        H  0.65274529  0.33543908  0.85526790     0.11300
H883        H  0.69966314  0.34090978  0.96740776     0.11000
H884        H  0.66208418  0.39175625  0.99078494     0.07600
C885        C  0.86142706  0.34989452  0.95205528    -0.11500
C886        C  0.86809549  0.38669497  0.93144454     0.05600
C887        C  0.85083186  0.39577744  0.89731352    -0.10300
C888        C  0.82827189  0.36846778  0.88384652    -0.11900
C889        C  0.82173940  0.33217357  0.90486469    -0.01700
C890        C  0.83821523  0.32344530  0.93932753    -0.10800
C891        C  0.89337568  0.41452908  0.94513739     0.05600
H892        H  0.85456091  0.42395561  0.88087501     0.07600
H893        H  0.81579485  0.37580390  0.85708669     0.11000
H894        H  0.83401660  0.29518573  0.95557632     0.11300
H895        H  0.87462734  0.34054423  0.97754669     0.07600
C896        C  0.90226598  0.41498687  0.98513355    -0.11500
C897        C  0.92776402  0.43742263  0.99747103    -0.10800
C898        C  0.94425767  0.46178767  0.97075821    -0.01700
C899        C  0.93444892  0.46375144  0.93133913    -0.11900
C900        C  0.90970773  0.43974382  0.91845722    -0.10300
H901        H  0.88989969  0.39755223  0.00716792     0.07600
H902        H  0.93506942  0.43497764  0.02793074     0.11300
H903        H  0.94649579  0.48286291  0.91025650     0.11000
H904        H  0.90412015  0.44022047  0.88735779     0.07600
C905        C  0.65978527  0.61061094  0.04822675    -0.11500
C906        C  0.63303011  0.60424386  0.07039948     0.05600
C907        C  0.62885078  0.62637165  0.10551299    -0.10300
C908        C  0.65066101  0.65493915  0.11790026    -0.11900
C909        C  0.67725131  0.66192749  0.09553955    -0.01700
C910        C  0.68183656  0.63907879  0.06082472    -0.10800
C911        C  0.60843842  0.57676274  0.05598649     0.05600
H912        H  0.60820699  0.62251415  0.12279256     0.07600
H913        H  0.64643400  0.67198784  0.14482796     0.11000
H914        H  0.70210659  0.64379711  0.04304283     0.11300
H915        H  0.66349225  0.59376663  0.02105471     0.07600
C916        C  0.59817581  0.58003750  0.01684982    -0.11500
C917        C  0.57255774  0.55793797  0.00438346    -0.10800
C918        C  0.55700663  0.53186074  0.03066540    -0.01700
C919        C  0.56801917  0.52698856  0.06926673    -0.11900
C920        C  0.59342174  0.54959943  0.08196438    -0.10300
H921        H  0.60911445  0.60111634  0.99642674     0.07600
H922        H  0.56422059  0.56214341  0.97451604     0.11300
H923        H  0.55643950  0.50663538  0.08976812     0.11000
H924        H  0.60108298  0.54639739  0.11222718     0.07600
C925        C  0.90035822  0.53819163  0.07372308    -0.11500
C926        C  0.89079456  0.57410417  0.05376557     0.05600
C927        C  0.90716584  0.58683358  0.02013871    -0.10300
C928        C  0.93284212  0.56493015  0.00743806    -0.11900
C929        C  0.94278819  0.52990313  0.02802886    -0.01700
C930        C  0.92615031  0.51632464  0.06097798    -0.10800
C931        C  0.86503920  0.59969153  0.06895049     0.05600
H932        H  0.90084528  0.61468059  0.00444260     0.07600
H933        H  0.94559946  0.57605890  0.98217135     0.11000
H934        H  0.93348737  0.48936572  0.07733230     0.11300
H935        H  0.88809724  0.52725933  0.09943356     0.07600
C936        C  0.84495153  0.61973327  0.04272085    -0.11500
C937        C  0.82288770  0.64732349  0.05670674    -0.10800
C938        C  0.82027950  0.65548163  0.09729732    -0.01700
C939        C  0.83943161  0.63408308  0.12370499    -0.11900
C940        C  0.86156424  0.60655502  0.10969996    -0.10300
H941        H  0.84660655  0.61458488  0.01122413     0.07600
H942        H  0.80835488  0.66303093  0.03558580     0.11300
H943        H  0.83803909  0.63963785  0.15517250     0.11000
H944        H  0.87681352  0.59201951  0.13073007     0.07600
C945        C  0.50946549  0.61295762  0.10484060    -0.11500
C946        C  0.50148176  0.59386786  0.14062140     0.05600
C947        C  0.99193170  0.55256861  0.14069184    -0.10300
C948        C  0.99105840  0.53029925  0.10556387    -0.11900
C949        C  0.49891000  0.54931744  0.06979735    -0.01700
C950        C  0.50788667  0.59087827  0.06947817    -0.10800
C951        C  0.50277472  0.61703200  0.17790180     0.05600
H952        H  0.98585157  0.53735826  0.16806219     0.07600
H953        H  0.98477476  0.49795856  0.10629471     0.11000
H954        H  0.51423177  0.60578064  0.04206914     0.11300
H955        H  0.51670456  0.64494935  0.10432074     0.07600
C956        C  0.52992180  0.63660781  0.18973027    -0.11500
C957        C  0.53067515  0.65980390  0.22447208    -0.10800
C958        C  0.50409454  0.66440376  0.24724817    -0.01700
C959        C  0.97716538  0.64397430  0.23578234    -0.11900
C960        C  0.97660894  0.62009846  0.20157000    -0.10300
H961        H  0.55037608  0.63422374  0.17187749     0.07600
H962        H  0.55158494  0.67571060  0.23252024     0.11300
H963        H  0.95637420  0.64723559  0.25283952     0.11000
H964        H  0.95547722  0.60514734  0.19282271     0.07600
C965        C  0.65579310  0.45614179  0.58649455    -0.11500
C966        C  0.64016807  0.42958137  0.56049160     0.05600
C967        C  0.64993549  0.42689386  0.52110725    -0.10300
C968        C  0.67561364  0.44874654  0.50843456    -0.11900
C969        C  0.69187191  0.47399329  0.53474919    -0.01700
C970        C  0.68130448  0.47850106  0.57359830    -0.10800
C971        C  0.61541274  0.40209830  0.57483967     0.05600
H972        H  0.63861782  0.40629748  0.50057058     0.07600
H973        H  0.68357693  0.44469850  0.47842364     0.11000
H974        H  0.69349182  0.49807237  0.59422942     0.11300
H975        H  0.64859081  0.45899824  0.61693631     0.07600
C976        C  0.61923433  0.37994966  0.61012846    -0.11500
C977        C  0.59768814  0.35049171  0.62161124    -0.10800
C978        C  0.57173191  0.34263349  0.59816673    -0.01700
C979        C  0.56727860  0.36589669  0.56363667    -0.11900
C980        C  0.58900467  0.39522462  0.55198279    -0.10300
H981        H  0.63952878  0.38419977  0.62807454     0.07600
H982        H  0.60170835  0.33326279  0.64853223     0.11300
H983        H  0.54745712  0.36064494  0.54507954     0.11000
H984        H  0.58541535  0.41212795  0.52477651     0.07600
C985        C  0.88883208  0.39301697  0.61097724    -0.11500
C986        C  0.88328766  0.39821200  0.57042826     0.05600
C987        C  0.90139855  0.37648786  0.54325344    -0.10300
C988        C  0.92392745  0.34910882  0.55632913    -0.11900
C989        C  0.92869772  0.34261626  0.59689719    -0.01700
C990        C  0.91124991  0.36539475  0.62409877    -0.10800
C991        C  0.85734632  0.42388587  0.55649494     0.05600
H992        H  0.89779001  0.38024486  0.51182461     0.07600
H993        H  0.93701630  0.33215090  0.53460614     0.11000
H994        H  0.91435945  0.36109844  0.65554680     0.11300
H995        H  0.87500490  0.40909111  0.63255339     0.07600
C996        C  0.83737467  0.40834336  0.52756986    -0.11500
C997        C  0.81186918  0.43102465  0.51574415    -0.10800
C998        C  0.80600296  0.46983874  0.53224722    -0.01700
C999        C  0.82619377  0.48612023  0.56041934    -0.11900
C1000       C  0.85159987  0.46309206  0.57276128    -0.10300
H1001       H  0.84098104  0.37802543  0.51494522     0.07600
H1002       H  0.79632800  0.41803055  0.49413514     0.11300
H1003       H  0.82186185  0.51607767  0.57342657     0.11000
H1004       H  0.86672216  0.47580446  0.59497932     0.07600
C1005       C  0.85338869  0.04756044  0.56376646    -0.11500
C1006       C  0.86227075  0.08341438  0.54324100     0.05600
C1007       C  0.84502766  0.09613659  0.51038530    -0.10300
C1008       C  0.81886689  0.07433678  0.49915424    -0.11900
C1009       C  0.80957622  0.03940021  0.52041440    -0.01700
C1010       C  0.82727645  0.02561484  0.55232350    -0.10800
C1011       C  0.88774683  0.10952042  0.55791793     0.05600
H1012       H  0.85105060  0.12391645  0.49436782     0.07600
H1013       H  0.80536233  0.08528866  0.47444185     0.11000
H1014       H  0.82051827  0.99847818  0.56882213     0.11300
H1015       H  0.86640863  0.03689039  0.58900542     0.07600
C1016       C  0.88983646  0.11863862  0.59832357    -0.11500
C1017       C  0.91142349  0.14691807  0.61202840    -0.10800
C1018       C  0.93165973  0.16637312  0.58573567    -0.01700
C1019       C  0.93063229  0.15596911  0.54556163    -0.11900
C1020       C  0.90863701  0.12800262  0.53168859    -0.10300
H1021       H  0.87387125  0.10528086  0.61916257     0.07600
H1022       H  0.91190714  0.15421082  0.64323022     0.11300
H1023       H  0.94598164  0.17063762  0.52475505     0.11000
H1024       H  0.90761864  0.12128537  0.50040853     0.07600
C1025       C  0.65228287  0.08366780  0.50940252    -0.11500
C1026       C  0.64388937  0.08475428  0.54950230     0.05600
C1027       C  0.66077073  0.06058317  0.57647612    -0.10300
C1028       C  0.68581338  0.03718017  0.56382109    -0.11900
C1029       C  0.69517528  0.03853271  0.52423178    -0.01700
C1030       C  0.67785875  0.06143193  0.49710767    -0.10800
C1031       C  0.61867964  0.11244871  0.56315142     0.05600
H1032       H  0.65542806  0.06074232  0.60763941     0.07600
H1033       H  0.69857013  0.01925512  0.58520711     0.11000
H1034       H  0.68464821  0.06300119  0.46641337     0.11300
H1035       H  0.63944209  0.10056644  0.48737124     0.07600
C1036       C  0.61268596  0.14992334  0.54339122    -0.11500
C1037       C  0.58989360  0.17667080  0.55668294    -0.10800
C1038       C  0.57310234  0.16730362  0.59072104    -0.01700
C1039       C  0.57880338  0.13006326  0.61060062    -0.11900
C1040       C  0.60103608  0.10264557  0.59666707    -0.12300
H1041       H  0.62618086  0.15945112  0.51823757     0.07600
H1042       H  0.58625748  0.20555822  0.54124379     0.11300
H1043       H  0.56600913  0.12215317  0.63691342     0.11000
H1044       H  0.60436729  0.07386877  0.61230251     0.07600
C1045       C  0.00167373  0.37880779  0.89964377    -0.11500
C1046       C  0.50582612  0.39847707  0.86299792     0.05600
C1047       C  0.50908299  0.44150068  0.86153043    -0.10300
C1048       C  0.50757143  0.46460191  0.89609351    -0.11900
C1049       C  0.50311513  0.44495256  0.93250884    -0.01700
C1050       C  0.00043046  0.40197234  0.93431064    -0.10800
C1051       C  0.50515165  0.37439259  0.82617848     0.05600
H1052       H  0.51194585  0.45727546  0.83357930     0.07600
H1053       H  0.50957558  0.49789728  0.89453140     0.11000
H1054       H  0.99717533  0.38659157  0.96238851     0.11300
H1055       H  0.99932974  0.34556630  0.90135686     0.07600
C1056       C  0.52733320  0.38047716  0.79675880    -0.11500
C1057       C  0.52644741  0.35719004  0.76205317    -0.10800
C1058       C  0.50306230  0.32809878  0.75615294    -0.01700
C1059       C  0.98058461  0.32280811  0.78532380    -0.11900
C1060       C  0.98172907  0.34556207  0.82007526    -0.10300
H1061       H  0.54560298  0.40264724  0.80098541     0.07600
H1062       H  0.54405174  0.36174389  0.74000290     0.11300
H1063       H  0.96240125  0.30038879  0.78169362     0.11000
H1064       H  0.96414507  0.34085658  0.84213349     0.07600
C1065       C  0.83768906  0.10542971  0.94762028    -0.11500
C1066       C  0.86335819  0.09728921  0.92381647     0.05600
C1067       C  0.86610255  0.11788250  0.88751385    -0.10300
C1068       C  0.84443740  0.14718223  0.87602988    -0.11900
C1069       C  0.81938818  0.15654112  0.90047011    -0.01700
C1070       C  0.81582879  0.13464801  0.93597393    -0.10800
C1071       C  0.88857043  0.07031647  0.93806696     0.05600
H1072       H  0.88574277  0.11268986  0.86871610     0.07600
H1073       H  0.84772473  0.16321731  0.84829080     0.11000
H1074       H  0.79668532  0.14098300  0.95528534     0.11300
H1075       H  0.83481749  0.08969192  0.97558358     0.07600
C1076       C  0.89908860  0.07391866  0.97712578    -0.11500
C1077       C  0.92506471  0.05251099  0.98958313    -0.10800
C1078       C  0.94100498  0.02688731  0.96336959    -0.01700
C1079       C  0.92983815  0.02162990  0.92483489    -0.11900
C1080       C  0.90393729  0.04340003  0.91218870    -0.10300
H1081       H  0.88806380  0.09478807  0.99759195     0.07600
H1082       H  0.93340957  0.05701287  0.01939749     0.11300
H1083       H  0.94172180  0.00170369  0.90430041     0.11000
H1084       H  0.89619997  0.03972993  0.88201951     0.07600
C1085       C  0.58618190  0.09135945  0.96755442    -0.11500
C1086       C  0.60809203  0.07283832  0.94305845     0.05600
C1087       C  0.60364697  0.03179249  0.93072985    -0.10300
C1088       C  0.57756689  0.00981800  0.94265690    -0.11900
C1089       C  0.55544654  0.02896343  0.96638779    -0.01700
C1090       C  0.56006136  0.06971390  0.97889924    -0.10800
C1091       C  0.63446959  0.09763179  0.92913904     0.05600
H1092       H  0.62025398  0.01691506  0.91182766     0.07600
H1093       H  0.57425733  0.97836269  0.93270015     0.11000
H1094       H  0.54313095  0.08493523  0.99709361     0.11300
H1095       H  0.58884841  0.12310786  0.97698998     0.07600
C1096       C  0.64075829  0.10113549  0.88864442    -0.11500
C1097       C  0.66242854  0.12969646  0.87514132    -0.10800
C1098       C  0.67841487  0.15496037  0.90195913    -0.01700
C1099       C  0.67331955  0.14961107  0.94259950    -0.11900
C1100       C  0.65145534  0.12142643  0.95601411    -0.10300
H1101       H  0.62780489  0.08331114  0.86734302     0.07600
H1102       H  0.66597120  0.13288041  0.84365984     0.11300
H1103       H  0.68538850  0.16833542  0.96404968     0.11000
H1104       H  0.64714467  0.11902646  0.98740586     0.07600
C1105       C  0.48440715  0.10745423  0.88695912    -0.11500
C1106       C  0.99661171  0.08995796  0.85250466     0.05600
C1107       C  0.01061437  0.05110493  0.85427088    -0.10300
C1108       C  0.01159913  0.02944270  0.88976244    -0.11900
C1109       C  0.99917944  0.04665349  0.92415690    -0.01700
C1110       C  0.48610284  0.08617151  0.92276665    -0.10800
C1111       C  0.99574828  0.11279170  0.81497599     0.05600
H1112       H  0.02022692  0.03723118  0.82799650     0.07600
H1113       H  0.02160191  0.99886059  0.89032702     0.11000
H1114       H  0.47669293  0.10003698  0.94914691     0.11300
H1115       H  0.47393108  0.13774135  0.88618262     0.07600
C1116       C  0.96812360  0.12887466  0.80045977    -0.11500
C1117       C  0.96790421  0.15279752  0.76610655    -0.10800
C1118       C  0.99541434  0.16154316  0.74645447    -0.01700
C1119       C  0.52281748  0.14417492  0.76031824    -0.11900
C1120       C  0.52293858  0.11971206  0.79413755    -0.10300
H1121       H  0.94688948  0.12346162  0.81607595     0.07600
H1122       H  0.94654873  0.16616130  0.75609826     0.11300
H1123       H  0.54430508  0.15051439  0.74561856     0.11000
H1124       H  0.54445973  0.10755215  0.80495561     0.07600
C1125       C  0.90504977  0.94415871  0.07341154    -0.11500
C1126       C  0.88959500  0.91659315  0.04826148     0.05600
C1127       C  0.89896199  0.91314835  0.00878065    -0.10300
C1128       C  0.92441000  0.93502986  0.99532077    -0.11900
C1129       C  0.94071531  0.96094402  0.02099868    -0.01700
C1130       C  0.93024283  0.96653260  0.05973876    -0.10800
C1131       C  0.86556765  0.88886896  0.06390344     0.05600
H1132       H  0.88759310  0.89190261  0.98890887     0.07600
H1133       H  0.93221487  0.93042354  0.96531432     0.11000
H1134       H  0.94237958  0.98681362  0.07977935     0.11300
H1135       H  0.89804354  0.94763484  0.10387242     0.07600
C1136       C  0.87070515  0.86722310  0.09917136    -0.11500
C1137       C  0.84932176  0.83864204  0.11278956    -0.10800
C1138       C  0.82220838  0.83113928  0.09153594    -0.01700
C1139       C  0.81674320  0.85339925  0.05661593    -0.11900
C1140       C  0.83834030  0.88187572  0.04279962    -0.10300
H1141       H  0.89172544  0.87152528  0.11565241     0.07600
H1142       H  0.85426084  0.82204740  0.13982110     0.11300
H1143       H  0.79605202  0.84833442  0.03967099     0.11000
H1144       H  0.83387097  0.89831216  0.01554836     0.07600
C1145       C  0.65063638  0.86503731  0.03680388    -0.11500
C1146       C  0.63352129  0.89025484  0.06229266     0.05600
C1147       C  0.64037775  0.88976050  0.10283621    -0.10300
C1148       C  0.66287329  0.86320277  0.11776023    -0.11900
C1149       C  0.67913935  0.83676454  0.09240950    -0.01700
C1150       C  0.67322879  0.83869784  0.05165822    -0.10800
C1151       C  0.60715622  0.91449083  0.04697391     0.05600
H1152       H  0.62742484  0.90858892  0.12324056     0.07600
H1153       H  0.66689418  0.86252396  0.14930263     0.11000
H1154       H  0.68538605  0.81887525  0.03129813     0.11300
H1155       H  0.64613748  0.86514640  0.00536129     0.07600
C1156       C  0.58666454  0.89621629  0.02015157    -0.11500
C1157       C  0.56083056  0.91757344  0.00717670    -0.10800
C1158       C  0.55502664  0.95776443  0.02040984    -0.01700
C1159       C  0.57563682  0.97665118  0.04655970    -0.11900
C1160       C  0.60143938  0.95504372  0.05998778    -0.10300
H1161       H  0.59012827  0.86484827  0.01008102     0.07600
H1162       H  0.54500958  0.90251237  0.98717865     0.11300
H1163       H  0.57137853  0.00766351  0.05713586     0.11000
H1164       H  0.61689283  0.96993886  0.08052644     0.07600
C1165       C  0.02055463  0.87314054  0.19377969    -0.11500
C1166       C  0.99382464  0.87594873  0.17099195     0.05600
C1167       C  0.46684802  0.85711155  0.18447571    -0.10300
C1168       C  0.46681140  0.83517901  0.22006751    -0.11900
C1169       C  0.99390556  0.83117399  0.24209791    -0.01700
C1170       C  0.02066289  0.85067751  0.22884717    -0.10800
C1171       C  0.99453253  0.89828091  0.13308235     0.05600
H1172       H  0.44593874  0.85923250  0.16738601     0.07600
H1173       H  0.44599408  0.81996462  0.22952137     0.11000
H1174       H  0.04184261  0.84789005  0.24527510     0.11300
H1175       H  0.04162711  0.88732347  0.18379577     0.07600
C1176       C  0.00722448  0.93800623  0.13138314    -0.11500
C1177       C  0.00878184  0.95903793  0.09561287    -0.10800
C1178       C  0.99811753  0.94050628  0.06084593    -0.01700
C1179       C  0.48583294  0.90048487  0.06223085    -0.11900
C1180       C  0.48372040  0.87964651  0.09830007    -0.10300
H1181       H  0.01554572  0.95296263  0.15788964     0.07600
H1182       H  0.01789619  0.99015217  0.09507533     0.11300
H1183       H  0.47744798  0.88584815  0.03560747     0.11000
H1184       H  0.47410797  0.84881441  0.09900757     0.07600
loop_ 
_geom_bond_atom_site_label_1 
_geom_bond_atom_site_label_2 
_geom_bond_distance 
_geom_bond_site_symmetry_2 
_ccdc_geom_bond_type 
C1            C2   1.413   1_655  A
C1          C598   1.415       .  A
C1         C1178   1.481       .  S
C2            C3   1.408   1_564  A
C2          C566   1.485       .  S
C3          C596   1.415   1_455  A
C3          C497   1.485       .  S
C4            C5   1.416       .  A
C4          C595   1.415       .  A
C4          C517   1.481       .  S
C5            C6   1.410   1_546  A
C5          C486   1.489       .  S
C6          C593   1.415       .  A
C6          C537   1.485       .  S
O7           C22   1.263       .  A
O7          Al15   1.907       .  S
C8          C466   1.471       .  S
C8           O18   1.260       .  A
C8          O601   1.261   1_455  A
O9          C600   1.261       .  A
O9          Al11   1.898       .  S
O10          C12   1.259       .  A
O10         Al11   1.892       .  S
Al11         O19   1.894       .  S
Al11         O21   1.899       .  S
Al11        O612   1.783       .  S
C12         C397   1.482       .  S
C12          O25   1.264       .  A
O13          C23   1.263       .  A
O13        Al607   1.906       .  S
O14          C27   1.259       .  A
O14         Al24   1.892       .  S
Al15         O25   1.921       .  S
Al15        O605   1.906       .  S
Al15        O620   1.928       .  S
Al15        O612   1.787       .  S
O16          C23   1.262       .  A
O16         Al24   1.905       .  S
O17         C618   1.260   1_455  A
O17         Al24   1.897       .  S
O18         Al24   1.897       .  S
O19          C26   1.259       .  A
O20         Al24   1.781       .  S
O20        Al603   1.783   1_455  S
O20        Al607   1.787       .  S
O21          C22   1.262       .  A
C22         C426   1.474       .  S
C23         C386   1.480       .  S
C26         C526   1.469       .  S
C26         O609   1.260       .  A
C27         C446   1.475       .  S
C27          O28   1.265       .  A
O28        Al607   1.928       .  S
C29          C34   1.410       .  A
C29         C622   1.417   1_455  A
C29         C457   1.472       .  S
C30          C31   1.413   1_556  A
C30         C621   1.417       .  A
C30         C306   1.491       .  S
C31         C624   1.414       .  A
C31         C337   1.488       .  S
C32          C33   1.414   1_655  A
C32         C623   1.414       .  A
C32         C357   1.478       .  S
C33          C34   1.405   1_554  A
C33         C326   1.482       .  S
C34         C277   1.490       .  S
O35          C50   1.263       .  A
O35         Al43   1.903       .  S
C36         C577   1.470       .  S
C36          O46   1.260       .  A
C36         O629   1.261       .  A
O37         C628   1.261   1_455  A
O37         Al39   1.897       .  S
O38          C40   1.258       .  A
O38         Al39   1.891       .  S
Al39         O47   1.894       .  S
Al39         O49   1.902       .  S
Al39        O640   1.787       .  S
C40         C257   1.483       .  S
C40          O53   1.262       .  A
O41          C51   1.262       .  A
O41        Al635   1.903       .  S
O42          C55   1.258       .  A
O42         Al52   1.890       .  S
Al43         O53   1.919       .  S
Al43        O633   1.903   1_455  S
Al43        O648   1.925   1_455  S
Al43        O640   1.794       .  S
O44          C51   1.262       .  A
O44         Al52   1.903       .  S
O45         C646   1.258       .  A
O45         Al52   1.892       .  S
O46         Al52   1.894       .  S
O47          C54   1.258       .  A
O48         Al52   1.789       .  S
O48        Al631   1.787       .  S
O48        Al635   1.794       .  S
O49          C50   1.262       .  A
C50         C206   1.478       .  S
C51         C237   1.479       .  S
C54         C366   1.469       .  S
C54         O637   1.258   1_455  A
C55         C217   1.483       .  S
C55          O56   1.264       .  A
O56        Al635   1.925       .  S
C57          C58   1.413       .  A
C57          C62   1.411       .  A
C57         C166   1.473       .  S
C58          C59   1.412   1_565  A
C58         C266   1.487       .  S
C59          C60   1.417       .  A
C59         C437   1.491       .  S
C60          C61   1.411       .  A
C60         C186   1.474       .  S
C61          C62   1.403   1_545  A
C61         C417   1.483       .  S
C62         C246   1.484       .  S
O63          C78   1.262       .  A
O63         Al71   1.903       .  S
C64         C157   1.467       .  S
C64          O74   1.260       .  A
C64          O65   1.258       .  A
O65         Al67   1.890       .  S
O66          C68   1.258       .  A
O66         Al67   1.893       .  S
Al67         O75   1.898       .  S
Al67         O77   1.899       .  S
Al67         O76   1.788       .  S
C68         C557   1.484       .  S
C68          O81   1.264       .  A
O69          C79   1.263       .  A
O69         Al71   1.904       .  S
O70          C83   1.258       .  A
O70         Al80   1.893       .  S
Al71         O84   1.923       .  S
Al71         O81   1.924       .  S
Al71         O76   1.791       .  S
O72          C79   1.262       .  A
O72         Al80   1.900       .  S
O73          C82   1.259       .  A
O73         Al80   1.890       .  S
O74         Al80   1.894       .  S
O75          C82   1.260       .  A
O76         Al80   1.787       .  S
O77          C78   1.261       .  A
C78         C317   1.477       .  S
C79         C546   1.479       .  S
C82         C137   1.469       .  S
C83         C346   1.485       .  S
C83          O84   1.264       .  A
C85          C86   1.412       .  A
C85          C90   1.414       .  A
C85         C146   1.480       .  S
C86          C87   1.407       .  A
C86         C226   1.485       .  S
C87          C88   1.413       .  A
C87         C406   1.481       .  S
C88          C89   1.414       .  A
C88         C117   1.479       .  S
C89          C90   1.408       .  A
C89         C377   1.487       .  S
C90         C197   1.483       .  S
O91         C106   1.263       .  A
O91         Al99   1.911       .  S
C92         C126   1.467       .  S
C92         O102   1.261       .  A
C92          O93   1.259       .  A
O93         Al95   1.892       .  S
O94          C96   1.257       .  A
O94         Al95   1.888       .  S
Al95        O103   1.893       .  S
Al95        O105   1.904       .  S
Al95        O104   1.781       .  S
C96         C297   1.474       .  S
C96         O109   1.264       .  A
O97         C107   1.264       .  A
O97         Al99   1.916       .  S
O98         C111   1.260       .  A
O98        Al108   1.895       .  S
Al99        O112   1.922       .  S
Al99        O109   1.926       .  S
Al99        O104   1.788       .  S
O100        C107   1.262       .  A
O100       Al108   1.903       .  S
O101        C110   1.260       .  A
O101       Al108   1.898       .  S
O102       Al108   1.898       .  S
O103        C110   1.260       .  A
O104       Al108   1.784       .  S
O105        C106   1.262       .  A
C106        C477   1.482       .  S
C107        C286   1.483       .  S
C110        C177   1.472       .  S
C111        C506   1.483       .  S
C111        O112   1.265       .  A
C113        C114   1.404       .  A
C113        C118   1.397       .  A
C113        H123   1.084       .  S
C114        C115   1.401       .  A
C114        C119   1.470       .  S
C115        C116   1.391       .  A
C115        H120   1.083       .  S
C116        C117   1.402       .  A
C116        H121   1.083       .  S
C117        C118   1.403       .  A
C118        H122   1.083       .  S
C119        C124   1.404       .  A
C119        C128   1.401       .  A
C124        C125   1.398       .  A
C124        H129   1.083       .  S
C125        C126   1.403       .  A
C125        H130   1.083       .  S
C126        C127   1.404       .  A
C127        C128   1.392       .  A
C127        H131   1.083       .  S
C128        H132   1.084       .  S
C133        C134   1.402       .  A
C133        C138   1.393       .  A
C133        H143   1.084       .  S
C134        C135   1.404       .  A
C134        C139   1.473       .  S
C135        C136   1.398       .  A
C135        H140   1.083       .  S
C136        C137   1.403       .  A
C136        H141   1.083       .  S
C137        C138   1.404       .  A
C138        H142   1.083       .  S
C139        C144   1.402       .  A
C139        C148   1.405       .  A
C144        C145   1.392       .  A
C144        H149   1.083       .  S
C145        C146   1.402       .  A
C145        H150   1.084       .  S
C146        C147   1.402       .  A
C147        C148   1.397       .  A
C147        H151   1.082       .  S
C148        H152   1.083       .  S
C153        C154   1.401       .  A
C153        C158   1.394       .  A
C153        H163   1.084       .  S
C154        C155   1.402       .  A
C154        C159   1.466       .  S
C155        C156   1.396       .  A
C155        H160   1.083       .  S
C156        C157   1.403       .  A
C156        H161   1.083       .  S
C157        C158   1.404       .  A
C158        H162   1.083       .  S
C159        C164   1.400       .  A
C159        C168   1.404       .  A
C164        C165   1.391       .  A
C164        H169   1.083       .  S
C165        C166   1.401       .  A
C165        H170   1.083   1_565  S
C166        C167   1.400       .  A
C167        C168   1.397       .  A
C167        H171   1.083       .  S
C168        H172   1.083       .  S
C173        C174   1.400       .  A
C173        C178   1.392       .  A
C173        H183   1.083       .  S
C174        C175   1.404       .  A
C174        C179   1.470       .  S
C175        C176   1.396       .  A
C175        H180   1.083       .  S
C176        C177   1.404       .  A
C176        H181   1.083       .  S
C177        C178   1.406       .  A
C178        H182   1.083       .  S
C179        C184   1.401       .  A
C179        C188   1.406       .  A
C184        C185   1.390       .  A
C184        H189   1.083       .  S
C185        C186   1.401       .  A
C185        H190   1.083       .  S
C186        C187   1.400       .  A
C187        C188   1.396       .  A
C187        H191   1.083       .  S
C188        H192   1.083       .  S
C193        C194   1.406       .  A
C193        C198   1.395       .  A
C193        H203   1.083       .  S
C194        C195   1.409       .  A
C194        C199   1.487       .  S
C195        C196   1.399       .  A
C195        H200   1.083       .  S
C196        C197   1.401       .  A
C196        H201   1.083       .  S
C197        C198   1.401       .  A
C198        H202   1.084       .  S
C199        C204   1.408       .  A
C199        C208   1.405       .  A
C204        C205   1.400       .  A
C204        H209   1.083       .  S
C205        C206   1.404       .  A
C205        H210   1.083       .  S
C206        C207   1.405       .  A
C207        C208   1.394       .  A
C207        H211   1.083       .  S
C208        H212   1.083       .  S
C213        C214   1.406       .  A
C213        C218   1.398       .  A
C213        H223   1.083       .  S
C214        C215   1.405       .  A
C214        C219   1.486       .  S
C215        C216   1.399       .  A
C215        H220   1.083       .  S
C216        C217   1.407       .  A
C216        H221   1.083       .  S
C217        C218   1.405       .  A
C218        H222   1.083       .  S
C219        C224   1.405       .  A
C219        C228   1.408       .  A
C224        C225   1.394       .  A
C224        H229   1.083       .  S
C225        C226   1.401       .  A
C225        H230   1.083       .  S
C226        C227   1.403       .  A
C227        C228   1.402       .  A
C227        H231   1.083       .  S
C228        H232   1.082       .  S
C233        C234   1.402       .  A
C233        C238   1.394       .  A
C233        H243   1.083       .  S
C234        C235   1.406       .  A
C234        C239   1.480       .  S
C235        C236   1.400       .  A
C235        H240   1.083       .  S
C236        C237   1.405       .  A
C236        H241   1.083       .  S
C237        C238   1.407       .  A
C238        H242   1.083       .  S
C239        C244   1.407       .  A
C239        C248   1.404       .  A
C244        C245   1.399       .  A
C244        H249   1.083       .  S
C245        C246   1.402       .  A
C245        H250   1.083       .  S
C246        C247   1.402       .  A
C247        C248   1.394       .  A
C247        H251   1.083       .  S
C248        H252   1.083       .  S
C253        C254   1.407       .  A
C253        C258   1.398       .  A
C253        H263   1.083       .  S
C254        C255   1.407       .  A
C254        C259   1.491       .  S
C255        C256   1.400       .  A
C255        H260   1.082       .  S
C256        C257   1.405       .  A
C256        H261   1.083       .  S
C257        C258   1.406       .  A
C258        H262   1.083       .  S
C259        C264   1.408       .  A
C259        C268   1.408       .  A
C264        C265   1.399       .  A
C264        H269   1.082       .  S
C265        C266   1.402       .  A
C265        H270   1.083   1_565  S
C266        C267   1.401       .  A
C267        C268   1.398       .  A
C267        H271   1.084       .  S
C268        H272   1.082       .  S
C273        C274   1.408       .  A
C273        C278   1.400       .  A
C273        H283   1.083       .  S
C274        C275   1.405       .  A
C274        C279   1.487       .  S
C275        C276   1.398       .  A
C275        H280   1.083   1_556  S
C276        C277   1.403       .  A
C276        H281   1.083   1_556  S
C277        C278   1.402       .  A
C278        H282   1.082       .  S
C279        C284   1.403       .  A
C279        C288   1.408       .  A
C284        C285   1.395       .  A
C284        H289   1.083       .  S
C285        C286   1.407       .  A
C285        H290   1.083       .  S
C286        C287   1.405       .  A
C287        C288   1.404       .  A
C287        H291   1.083       .  S
C288        H292   1.083       .  S
C293        C294   1.411       .  A
C293        C298   1.395       .  A
C293        H303   1.081       .  S
C294        C295   1.411       .  A
C294        C299   1.499       .  S
C295        C296   1.400       .  A
C295        H300   1.081       .  S
C296        C297   1.403       .  A
C296        H301   1.083       .  S
C297        C298   1.400       .  A
C298        H302   1.083       .  S
C299        C304   1.409       .  A
C299        C308   1.412       .  A
C304        C305   1.394       .  A
C304        H309   1.081   1_556  S
C305        C306   1.400       .  A
C305        H310   1.082   1_556  S
C306        C307   1.403       .  A
C307        C308   1.401       .  A
C307        H311   1.082       .  S
C308        H312   1.081       .  S
C313        C314   1.406       .  A
C313        C318   1.400       .  A
C313        H323   1.083       .  S
C314        C315   1.402       .  A
C314        C319   1.478       .  S
C315        C316   1.393       .  A
C315        H320   1.083       .  S
C316        C317   1.407       .  A
C316        H321   1.083       .  S
C317        C318   1.405       .  A
C318        H322   1.083       .  S
C319        C324   1.403       .  A
C319        C328   1.407       .  A
C324        C325   1.394       .  A
C324        H329   1.083   1_554  S
C325        C326   1.403       .  A
C325        H330   1.083   1_554  S
C326        C327   1.402       .  A
C327        C328   1.397       .  A
C327        H331   1.083       .  S
C328        H332   1.083       .  S
C333        C334   1.408       .  A
C333        C338   1.401       .  A
C333        H343   1.083       .  S
C334        C335   1.407       .  A
C334        C339   1.491       .  S
C335        C336   1.397       .  A
C335        H340   1.082       .  S
C336        C337   1.400       .  A
C336        H341   1.084   1_554  S
C337        C338   1.403       .  A
C338        H342   1.082       .  S
C339        C344   1.407       .  A
C339        C348   1.407       .  A
C344        C345   1.399       .  A
C344        H349   1.083       .  S
C345        C346   1.405       .  A
C345        H350   1.083       .  S
C346        C347   1.407       .  A
C347        C348   1.400       .  A
C347        H351   1.083       .  S
C348        H352   1.083       .  S
C353        C354   1.405       .  A
C353        C358   1.397       .  A
C353        H363   1.083       .  S
C354        C947   1.401   1_455  A
C354        C359   1.471       .  S
C355        C356   1.393       .  A
C355        C946   1.401       .  A
C355        H360   1.083       .  S
C356        C949   1.402       .  A
C356        H361   1.083       .  S
C357        C358   1.402   1_655  A
C357        C948   1.402       .  A
C358        H362   1.082       .  S
C359        C364   1.403       .  A
C359        C960   1.402   1_455  A
C364        C365   1.397       .  A
C364        H369   1.083       .  S
C365        C366   1.404       .  A
C365        H370   1.083       .  S
C366        C959   1.404   1_455  A
C367        C368   1.394       .  A
C367        C958   1.404       .  A
C367        H371   1.083       .  S
C368        C951   1.402       .  A
C368        H372   1.084       .  S
C373        C374   1.407       .  A
C373        C378   1.399       .  A
C373        H383   1.083       .  S
C374        C375   1.404       .  A
C374        C379   1.483       .  S
C375        C376   1.395       .  A
C375        H380   1.083       .  S
C376        C377   1.402       .  A
C376        H381   1.083       .  S
C377        C378   1.403       .  A
C378        H382   1.083       .  S
C379        C384   1.403       .  A
C379        C388   1.407       .  A
C384        C385   1.396       .  A
C384        H389   1.083       .  S
C385        C386   1.407       .  A
C385        H390   1.083       .  S
C386        C387   1.404       .  A
C387        C388   1.400       .  A
C387        H391   1.083       .  S
C388        H392   1.083       .  S
C393        C394   1.404       .  A
C393        C398   1.399       .  A
C393        H403   1.083       .  S
C394        C395   1.405       .  A
C394        C399   1.483       .  S
C395        C396   1.397       .  A
C395        H400   1.083       .  S
C396        C397   1.405       .  A
C396        H401   1.083       .  S
C397        C398   1.407       .  A
C398        H402   1.083       .  S
C399        C404   1.405       .  A
C399        C408   1.408       .  A
C404        C405   1.394       .  A
C404        H409   1.083       .  S
C405        C406   1.400       .  A
C405        H410   1.083       .  S
C406        C407   1.402       .  A
C407        C408   1.402       .  A
C407        H411   1.083       .  S
C408        H412   1.082       .  S
C413        C414   1.408       .  A
C413        C418   1.399       .  A
C413        H423   1.083       .  S
C414        C415   1.405       .  A
C414        C419   1.483       .  S
C415        C416   1.396       .  A
C415        H420   1.083       .  S
C416        C417   1.401       .  A
C416        H421   1.083       .  S
C417        C418   1.401       .  A
C418        H422   1.082   1_545  S
C419        C424   1.403       .  A
C419        C428   1.408       .  A
C424        C425   1.394       .  A
C424        H429   1.083       .  S
C425        C426   1.405       .  A
C425        H430   1.083       .  S
C426        C427   1.403       .  A
C427        C428   1.401       .  A
C427        H431   1.083       .  S
C428        H432   1.083       .  S
C433        C434   1.408       .  A
C433        C438   1.395       .  A
C433        H443   1.082       .  S
C434        C435   1.411       .  A
C434        C439   1.496       .  S
C435        C436   1.400       .  A
C435        H440   1.082       .  S
C436        C437   1.403       .  A
C436        H441   1.082       .  S
C437        C438   1.402       .  A
C438        H442   1.083       .  S
C439        C444   1.410       .  A
C439        C448   1.409       .  A
C444        C445   1.396       .  A
C444        H449   1.082       .  S
C445        C446   1.401       .  A
C445        H450   1.083       .  S
C446        C447   1.403       .  A
C447        C448   1.400       .  A
C447        H451   1.083       .  S
C448        H452   1.082       .  S
C453        C458   1.395       .  A
C453       C1046   1.407       .  A
C453        H463   1.083       .  S
C454        C455   1.402       .  A
C454       C1045   1.407       .  A
C454        C459   1.472       .  S
C455        C456   1.392       .  A
C455        H460   1.083       .  S
C456        C457   1.401       .  A
C456        H461   1.083       .  S
C457       C1050   1.398       .  A
C458       C1049   1.398       .  A
C458        H462   1.083       .  S
C459        C464   1.405       .  A
C459       C1060   1.400   1_455  A
C464        C465   1.398       .  A
C464        H469   1.083       .  S
C465        C466   1.404       .  A
C465        H470   1.083       .  S
C466       C1059   1.405   1_455  A
C467        C468   1.390       .  A
C467       C1058   1.405       .  A
C467        H471   1.083       .  S
C468       C1051   1.400       .  A
C468        H472   1.084       .  S
C473        C474   1.408       .  A
C473        C478   1.402       .  A
C473        H483   1.083       .  S
C474        C475   1.404       .  A
C474        C479   1.487       .  S
C475        C476   1.396       .  A
C475        H480   1.083       .  S
C476        C477   1.407       .  A
C476        H481   1.083       .  S
C477        C478   1.404       .  A
C478        H482   1.083       .  S
C479        C484   1.405       .  A
C479        C488   1.409       .  A
C484        C485   1.396       .  A
C484        H489   1.083       .  S
C485        C486   1.403       .  A
C485        H490   1.083   1_556  S
C486        C487   1.403       .  A
C487        C488   1.401       .  A
C487        H491   1.083       .  S
C488        H492   1.083       .  S
C493        C494   1.404       .  A
C493        C498   1.394       .  A
C493        H503   1.083       .  S
C494        C495   1.407       .  A
C494        C499   1.482       .  S
C495        C496   1.403       .  A
C495        H500   1.083       .  S
C496        C497   1.404       .  A
C496        H501   1.083   1_545  S
C497        C498   1.401       .  A
C498        H502   1.083       .  S
C499        C504   1.404       .  A
C499        C508   1.404       .  A
C504        C505   1.401       .  A
C504        H509   1.083       .  S
C505        C506   1.408       .  A
C505        H510   1.083       .  S
C506        C507   1.405       .  A
C507        C508   1.397       .  A
C507        H511   1.083       .  S
C508        H512   1.083       .  S
C513        C518   1.397       .  A
C513       C1106   1.404       .  A
C513        H523   1.083       .  S
C514        C515   1.401       .  A
C514       C1105   1.404       .  A
C514        C519   1.471       .  S
C515        C516   1.392       .  A
C515        H520   1.083       .  S
C516        C517   1.402       .  A
C516        H521   1.083   1_545  S
C517       C1110   1.403       .  A
C518       C1109   1.403       .  A
C518        H522   1.083       .  S
C519        C524   1.404       .  A
C519       C1120   1.401       .  A
C524        C525   1.398       .  A
C524        H529   1.083       .  S
C525        C526   1.404       .  A
C525        H530   1.083       .  S
C526       C1119   1.404       .  A
C527        C528   1.392       .  A
C527       C1118   1.404   1_455  A
C527        H531   1.083       .  S
C528       C1111   1.401   1_455  A
C528        H532   1.083       .  S
C533        C534   1.406       .  A
C533        C538   1.397       .  A
C533        H543   1.083       .  S
C534        C535   1.404       .  A
C534        C539   1.480       .  S
C535        C536   1.395   1_554  A
C535        H540   1.083   1_554  S
C536        C537   1.403   1_556  A
C536        H541   1.083       .  S
C537        C538   1.403       .  A
C538        H542   1.083       .  S
C539        C544   1.403       .  A
C539        C548   1.406       .  A
C544        C545   1.394       .  A
C544        H549   1.083       .  S
C545        C546   1.407       .  A
C545        H550   1.083       .  S
C546        C547   1.405       .  A
C547        C548   1.400       .  A
C547        H551   1.083       .  S
C548        H552   1.083       .  S
C553        C554   1.406       .  A
C553        C558   1.398       .  A
C553        H563   1.083       .  S
C554        C555   1.405       .  A
C554        C559   1.488       .  S
C555        C556   1.401       .  A
C555        H560   1.083       .  S
C556        C557   1.407       .  A
C556        H561   1.083       .  S
C557        C558   1.405       .  A
C558        H562   1.083       .  S
C559        C564   1.406       .  A
C559        C568   1.409       .  A
C564        C565   1.395       .  A
C564        H569   1.083       .  S
C565        C566   1.401       .  A
C565        H570   1.083   1_554  S
C566        C567   1.403       .  A
C567        C568   1.403       .  A
C567        H571   1.083   1_565  S
C568        H572   1.082       .  S
C573        C574   1.402       .  A
C573        C578   1.392       .  A
C573        H583   1.083       .  S
C574       C1167   1.404       .  A
C574        C579   1.474       .  S
C575        C576   1.399       .  A
C575       C1166   1.404       .  A
C575        H580   1.083       .  S
C576       C1169   1.405       .  A
C576        H581   1.083       .  S
C577        C578   1.403       .  A
C577       C1168   1.405       .  A
C578        H582   1.083       .  S
C579        C584   1.402       .  A
C579       C1180   1.405       .  A
C584        C585   1.391       .  A
C584        H589   1.083       .  S
C585        C586   1.401       .  A
C585        H590   1.084       .  S
C586       C1179   1.403       .  A
C586        C593   1.481       .  S
C587        C588   1.398       .  A
C587       C1178   1.403       .  A
C587        H591   1.083       .  S
C588       C1171   1.405       .  A
C588        H592   1.083       .  S
C593        C594   1.413       .  A
C594        C595   1.408   1_564  A
C594       C1158   1.485       .  S
C595       C1089   1.485       .  S
C596        C597   1.416       .  A
C596       C1109   1.481       .  S
C597        C598   1.410   1_546  A
C597       C1078   1.489       .  S
C598       C1129   1.485       .  S
O599        C614   1.263       .  A
O599       Al607   1.907   1_655  S
C600       C1058   1.471       .  S
C600        O610   1.260       .  A
O601       Al603   1.898       .  S
O602        C604   1.259       .  A
O602       Al603   1.892       .  S
Al603       O611   1.894       .  S
Al603       O613   1.899       .  S
C604        C989   1.482       .  S
C604        O617   1.264       .  A
O605        C615   1.263       .  A
O606        C619   1.259       .  A
O606       Al616   1.892       .  S
Al607       O617   1.921   1_455  S
O608        C615   1.262       .  A
O608       Al616   1.905       .  S
O609       Al616   1.897       .  S
O610       Al616   1.897       .  S
O611        C618   1.259       .  A
O612       Al616   1.781       .  S
O613        C614   1.262       .  A
C614       C1018   1.474       .  S
C615        C978   1.480       .  S
C618       C1118   1.469       .  S
C619       C1038   1.475       .  S
C619        O620   1.265       .  A
C621        C626   1.410       .  A
C621       C1049   1.472       .  S
C622        C623   1.413   1_556  A
C622        C898   1.491       .  S
C623        C929   1.488       .  S
C624        C625   1.414       .  A
C624        C949   1.478       .  S
C625        C626   1.405   1_554  A
C625        C918   1.482       .  S
C626        C869   1.490       .  S
O627        C642   1.263       .  A
O627       Al635   1.903       .  S
C628       C1169   1.470       .  S
C628        O638   1.260       .  A
O629       Al631   1.897       .  S
O630        C632   1.258       .  A
O630       Al631   1.891       .  S
Al631       O639   1.894       .  S
Al631       O641   1.902       .  S
C632        C849   1.483       .  S
C632        O645   1.262       .  A
O633        C643   1.262       .  A
O634        C647   1.258       .  A
O634       Al644   1.890       .  S
Al635       O645   1.919       .  S
O636        C643   1.262       .  A
O636       Al644   1.903       .  S
O637       Al644   1.892       .  S
O638       Al644   1.894       .  S
O639        C646   1.258       .  A
O640       Al644   1.789   1_455  S
O641        C642   1.262       .  A
C642        C798   1.478       .  S
C643        C829   1.479       .  S
C646        C958   1.469       .  S
C647        C809   1.483       .  S
C647        O648   1.264       .  A
C649        C650   1.413       .  A
C649        C654   1.411       .  A
C649        C758   1.473       .  S
C650        C651   1.412   1_565  A
C650        C858   1.487       .  S
C651        C652   1.417       .  A
C651       C1029   1.491       .  S
C652        C653   1.411       .  A
C652        C778   1.474       .  S
C653        C654   1.403   1_545  A
C653       C1009   1.483       .  S
C654        C838   1.484       .  S
O655        C670   1.262       .  A
O655       Al663   1.903       .  S
C656        C749   1.467       .  S
C656        O666   1.260       .  A
C656        O657   1.258       .  A
O657       Al659   1.890       .  S
O658        C660   1.258       .  A
O658       Al659   1.893       .  S
Al659       O667   1.898       .  S
Al659       O669   1.899       .  S
Al659       O668   1.788       .  S
C660       C1149   1.484       .  S
C660        O673   1.264       .  A
O661        C671   1.263       .  A
O661       Al663   1.904       .  S
O662        C675   1.258       .  A
O662       Al672   1.893       .  S
Al663       O676   1.923       .  S
Al663       O673   1.924       .  S
Al663       O668   1.791       .  S
O664        C671   1.262       .  A
O664       Al672   1.900       .  S
O665        C674   1.259       .  A
O665       Al672   1.890       .  S
O666       Al672   1.894       .  S
O667        C674   1.260       .  A
O668       Al672   1.787       .  S
O669        C670   1.261       .  A
C670        C909   1.477       .  S
C671       C1138   1.479       .  S
C674        C729   1.469       .  S
C675        C938   1.485       .  S
C675        O676   1.264       .  A
C677        C678   1.412       .  A
C677        C682   1.414       .  A
C677        C738   1.480       .  S
C678        C679   1.407       .  A
C678        C818   1.485       .  S
C679        C680   1.413       .  A
C679        C998   1.481       .  S
C680        C681   1.414       .  A
C680        C709   1.479       .  S
C681        C682   1.408       .  A
C681        C969   1.487       .  S
C682        C789   1.483       .  S
O683        C698   1.263       .  A
O683       Al691   1.911       .  S
C684        C718   1.467       .  S
C684        O694   1.261       .  A
C684        O685   1.259       .  A
O685       Al687   1.892       .  S
O686        C688   1.257       .  A
O686       Al687   1.888       .  S
Al687       O695   1.893       .  S
Al687       O697   1.904       .  S
Al687       O696   1.781       .  S
C688        C889   1.474       .  S
C688        O701   1.264       .  A
O689        C699   1.264       .  A
O689       Al691   1.916       .  S
O690        C703   1.260       .  A
O690       Al700   1.895       .  S
Al691       O704   1.922       .  S
Al691       O701   1.926       .  S
Al691       O696   1.788       .  S
O692        C699   1.262       .  A
O692       Al700   1.903       .  S
O693        C702   1.260       .  A
O693       Al700   1.898       .  S
O694       Al700   1.898       .  S
O695        C702   1.260       .  A
O696       Al700   1.784       .  S
O697        C698   1.262       .  A
C698       C1069   1.482       .  S
C699        C878   1.483       .  S
C702        C769   1.472       .  S
C703       C1098   1.483       .  S
C703        O704   1.265       .  A
C705        C706   1.404       .  A
C705        C710   1.397       .  A
C705        H715   1.084       .  S
C706        C707   1.401       .  A
C706        C711   1.470       .  S
C707        C708   1.391       .  A
C707        H712   1.083       .  S
C708        C709   1.402       .  A
C708        H713   1.083       .  S
C709        C710   1.403       .  A
C710        H714   1.083       .  S
C711        C716   1.404       .  A
C711        C720   1.401       .  A
C716        C717   1.398       .  A
C716        H721   1.083       .  S
C717        C718   1.403       .  A
C717        H722   1.083       .  S
C718        C719   1.404       .  A
C719        C720   1.392       .  A
C719        H723   1.083       .  S
C720        H724   1.084       .  S
C725        C726   1.402       .  A
C725        C730   1.393       .  A
C725        H735   1.084       .  S
C726        C727   1.404       .  A
C726        C731   1.473       .  S
C727        C728   1.398       .  A
C727        H732   1.083       .  S
C728        C729   1.403       .  A
C728        H733   1.083       .  S
C729        C730   1.404       .  A
C730        H734   1.083       .  S
C731        C736   1.402       .  A
C731        C740   1.405       .  A
C736        C737   1.392       .  A
C736        H741   1.083       .  S
C737        C738   1.402       .  A
C737        H742   1.084       .  S
C738        C739   1.402       .  A
C739        C740   1.397       .  A
C739        H743   1.082       .  S
C740        H744   1.083       .  S
C745        C746   1.401       .  A
C745        C750   1.394       .  A
C745        H755   1.084       .  S
C746        C747   1.402       .  A
C746        C751   1.466       .  S
C747        C748   1.396       .  A
C747        H752   1.083       .  S
C748        C749   1.403       .  A
C748        H753   1.083       .  S
C749        C750   1.404       .  A
C750        H754   1.083       .  S
C751        C756   1.400       .  A
C751        C760   1.404       .  A
C756        C757   1.391       .  A
C756        H761   1.083       .  S
C757        C758   1.401       .  A
C757        H762   1.083   1_565  S
C758        C759   1.400       .  A
C759        C760   1.397       .  A
C759        H763   1.083       .  S
C760        H764   1.083       .  S
C765        C766   1.400       .  A
C765        C770   1.392       .  A
C765        H775   1.083       .  S
C766        C767   1.404       .  A
C766        C771   1.470       .  S
C767        C768   1.396       .  A
C767        H772   1.083       .  S
C768        C769   1.404       .  A
C768        H773   1.083       .  S
C769        C770   1.406       .  A
C770        H774   1.083       .  S
C771        C776   1.401       .  A
C771        C780   1.406       .  A
C776        C777   1.390       .  A
C776        H781   1.083       .  S
C777        C778   1.401       .  A
C777        H782   1.083       .  S
C778        C779   1.400       .  A
C779        C780   1.396       .  A
C779        H783   1.083       .  S
C780        H784   1.083       .  S
C785        C786   1.406       .  A
C785        C790   1.395       .  A
C785        H795   1.083       .  S
C786        C787   1.409       .  A
C786        C791   1.487       .  S
C787        C788   1.399       .  A
C787        H792   1.083       .  S
C788        C789   1.401       .  A
C788        H793   1.083       .  S
C789        C790   1.401       .  A
C790        H794   1.083       .  S
C791        C796   1.408       .  A
C791        C800   1.405       .  A
C796        C797   1.400       .  A
C796        H801   1.083       .  S
C797        C798   1.404       .  A
C797        H802   1.083       .  S
C798        C799   1.405       .  A
C799        C800   1.394       .  A
C799        H803   1.083       .  S
C800        H804   1.083       .  S
C805        C806   1.406       .  A
C805        C810   1.398       .  A
C805        H815   1.083       .  S
C806        C807   1.405       .  A
C806        C811   1.486       .  S
C807        C808   1.399       .  A
C807        H812   1.083       .  S
C808        C809   1.407       .  A
C808        H813   1.083       .  S
C809        C810   1.405       .  A
C810        H814   1.083       .  S
C811        C816   1.405       .  A
C811        C820   1.408       .  A
C816        C817   1.394       .  A
C816        H821   1.083       .  S
C817        C818   1.401       .  A
C817        H822   1.083       .  S
C818        C819   1.403       .  A
C819        C820   1.402       .  A
C819        H823   1.083       .  S
C820        H824   1.082       .  S
C825        C826   1.402       .  A
C825        C830   1.394       .  A
C825        H835   1.083       .  S
C826        C827   1.406       .  A
C826        C831   1.480       .  S
C827        C828   1.400       .  A
C827        H832   1.083       .  S
C828        C829   1.405       .  A
C828        H833   1.083       .  S
C829        C830   1.407       .  A
C830        H834   1.083       .  S
C831        C836   1.407       .  A
C831        C840   1.404       .  A
C836        C837   1.399       .  A
C836        H841   1.083       .  S
C837        C838   1.402       .  A
C837        H842   1.083       .  S
C838        C839   1.402       .  A
C839        C840   1.394       .  A
C839        H843   1.083       .  S
C840        H844   1.083       .  S
C845        C846   1.407       .  A
C845        C850   1.398       .  A
C845        H855   1.083       .  S
C846        C847   1.407       .  A
C846        C851   1.491       .  S
C847        C848   1.400       .  A
C847        H852   1.082       .  S
C848        C849   1.405       .  A
C848        H853   1.083       .  S
C849        C850   1.406       .  A
C850        H854   1.083       .  S
C851        C856   1.408       .  A
C851        C860   1.408       .  A
C856        C857   1.399       .  A
C856        H861   1.082       .  S
C857        C858   1.402       .  A
C857        H862   1.083   1_565  S
C858        C859   1.401       .  A
C859        C860   1.398       .  A
C859        H863   1.084       .  S
C860        H864   1.082       .  S
C865        C866   1.408       .  A
C865        C870   1.400       .  A
C865        H875   1.083       .  S
C866        C867   1.405       .  A
C866        C871   1.487       .  S
C867        C868   1.398       .  A
C867        H872   1.083   1_556  S
C868        C869   1.403       .  A
C868        H873   1.083   1_556  S
C869        C870   1.402       .  A
C870        H874   1.082       .  S
C871        C876   1.403       .  A
C871        C880   1.408       .  A
C876        C877   1.395       .  A
C876        H881   1.083       .  S
C877        C878   1.407       .  A
C877        H882   1.083       .  S
C878        C879   1.405       .  A
C879        C880   1.404       .  A
C879        H883   1.083       .  S
C880        H884   1.083       .  S
C885        C886   1.411       .  A
C885        C890   1.395       .  A
C885        H895   1.081       .  S
C886        C887   1.411       .  A
C886        C891   1.499       .  S
C887        C888   1.400       .  A
C887        H892   1.081       .  S
C888        C889   1.403       .  A
C888        H893   1.083       .  S
C889        C890   1.400       .  A
C890        H894   1.083       .  S
C891        C896   1.409       .  A
C891        C900   1.412       .  A
C896        C897   1.394       .  A
C896        H901   1.081   1_556  S
C897        C898   1.400       .  A
C897        H902   1.082   1_556  S
C898        C899   1.403       .  A
C899        C900   1.401       .  A
C899        H903   1.082       .  S
C900        H904   1.081       .  S
C905        C906   1.406       .  A
C905        C910   1.400       .  A
C905        H915   1.083       .  S
C906        C907   1.402       .  A
C906        C911   1.478       .  S
C907        C908   1.393       .  A
C907        H912   1.084       .  S
C908        C909   1.407       .  A
C908        H913   1.083       .  S
C909        C910   1.405       .  A
C910        H914   1.083       .  S
C911        C916   1.403       .  A
C911        C920   1.407       .  A
C916        C917   1.394       .  A
C916        H921   1.083   1_554  S
C917        C918   1.403       .  A
C917        H922   1.083   1_554  S
C918        C919   1.402       .  A
C919        C920   1.397       .  A
C919        H923   1.083       .  S
C920        H924   1.083       .  S
C925        C926   1.408       .  A
C925        C930   1.401       .  A
C925        H935   1.083       .  S
C926        C927   1.407       .  A
C926        C931   1.491       .  S
C927        C928   1.397       .  A
C927        H932   1.082       .  S
C928        C929   1.400       .  A
C928        H933   1.084   1_554  S
C929        C930   1.403       .  A
C930        H934   1.082       .  S
C931        C936   1.407       .  A
C931        C940   1.407       .  A
C936        C937   1.399       .  A
C936        H941   1.083       .  S
C937        C938   1.405       .  A
C937        H942   1.083       .  S
C938        C939   1.407       .  A
C939        C940   1.400       .  A
C939        H943   1.083       .  S
C940        H944   1.083       .  S
C945        C946   1.405       .  A
C945        C950   1.397       .  A
C945        H955   1.083       .  S
C946        C951   1.471       .  S
C947        C948   1.393       .  A
C947        H952   1.083       .  S
C948        H953   1.083       .  S
C949        C950   1.402       .  A
C950        H954   1.082       .  S
C951        C956   1.403       .  A
C956        C957   1.397       .  A
C956        H961   1.083       .  S
C957        C958   1.404       .  A
C957        H962   1.083       .  S
C959        C960   1.394       .  A
C959        H963   1.083       .  S
C960        H964   1.084       .  S
C965        C966   1.407       .  A
C965        C970   1.399       .  A
C965        H975   1.083       .  S
C966        C967   1.404       .  A
C966        C971   1.483       .  S
C967        C968   1.395       .  A
C967        H972   1.083       .  S
C968        C969   1.402       .  A
C968        H973   1.083       .  S
C969        C970   1.403       .  A
C970        H974   1.083       .  S
C971        C976   1.403       .  A
C971        C980   1.407       .  A
C976        C977   1.396       .  A
C976        H981   1.083       .  S
C977        C978   1.407       .  A
C977        H982   1.083       .  S
C978        C979   1.404       .  A
C979        C980   1.400       .  A
C979        H983   1.083       .  S
C980        H984   1.083       .  S
C985        C986   1.404       .  A
C985        C990   1.399       .  A
C985        H995   1.083       .  S
C986        C987   1.405       .  A
C986        C991   1.483       .  S
C987        C988   1.397       .  A
C987        H992   1.083       .  S
C988        C989   1.405       .  A
C988        H993   1.083       .  S
C989        C990   1.407       .  A
C990        H994   1.083       .  S
C991        C996   1.405       .  A
C991       C1000   1.408       .  A
C996        C997   1.394       .  A
C996       H1001   1.083       .  S
C997        C998   1.400       .  A
C997       H1002   1.083       .  S
C998        C999   1.402       .  A
C999       C1000   1.402       .  A
C999       H1003   1.083       .  S
C1000      H1004   1.082       .  S
C1005      C1006   1.408       .  A
C1005      C1010   1.399       .  A
C1005      H1015   1.083       .  S
C1006      C1007   1.405       .  A
C1006      C1011   1.483       .  S
C1007      C1008   1.396       .  A
C1007      H1012   1.083       .  S
C1008      C1009   1.401       .  A
C1008      H1013   1.083       .  S
C1009      C1010   1.401       .  A
C1010      H1014   1.082   1_545  S
C1011      C1016   1.403       .  A
C1011      C1020   1.408       .  A
C1016      C1017   1.394       .  A
C1016      H1021   1.083       .  S
C1017      C1018   1.405       .  A
C1017      H1022   1.083       .  S
C1018      C1019   1.403       .  A
C1019      C1020   1.401       .  A
C1019      H1023   1.083       .  S
C1020      H1024   1.083       .  S
C1025      C1026   1.408       .  A
C1025      C1030   1.395       .  A
C1025      H1035   1.082       .  S
C1026      C1027   1.411       .  A
C1026      C1031   1.496       .  S
C1027      C1028   1.400       .  A
C1027      H1032   1.082       .  S
C1028      C1029   1.403       .  A
C1028      H1033   1.082       .  S
C1029      C1030   1.402       .  A
C1030      H1034   1.083       .  S
C1031      C1036   1.410       .  A
C1031      C1040   1.409       .  A
C1036      C1037   1.396       .  A
C1036      H1041   1.082       .  S
C1037      C1038   1.401       .  A
C1037      H1042   1.083       .  S
C1038      C1039   1.403       .  A
C1039      C1040   1.400       .  A
C1039      H1043   1.083       .  S
C1040      H1044   1.082       .  S
C1045      C1050   1.395       .  A
C1045      H1055   1.083   1_455  S
C1046      C1047   1.402       .  A
C1046      C1051   1.472       .  S
C1047      C1048   1.392       .  A
C1047      H1052   1.083       .  S
C1048      C1049   1.401       .  A
C1048      H1053   1.083       .  S
C1050      H1054   1.083   1_455  S
C1051      C1056   1.405       .  A
C1056      C1057   1.398       .  A
C1056      H1061   1.083       .  S
C1057      C1058   1.404       .  A
C1057      H1062   1.083       .  S
C1059      C1060   1.390       .  A
C1059      H1063   1.083       .  S
C1060      H1064   1.083       .  S
C1065      C1066   1.408       .  A
C1065      C1070   1.402       .  A
C1065      H1075   1.083       .  S
C1066      C1067   1.404       .  A
C1066      C1071   1.487       .  S
C1067      C1068   1.396       .  A
C1067      H1072   1.083       .  S
C1068      C1069   1.407       .  A
C1068      H1073   1.083       .  S
C1069      C1070   1.404       .  A
C1070      H1074   1.083       .  S
C1071      C1076   1.405       .  A
C1071      C1080   1.409       .  A
C1076      C1077   1.396       .  A
C1076      H1081   1.083       .  S
C1077      C1078   1.403       .  A
C1077      H1082   1.083   1_556  S
C1078      C1079   1.403       .  A
C1079      C1080   1.401       .  A
C1079      H1083   1.083       .  S
C1080      H1084   1.083       .  S
C1085      C1086   1.404       .  A
C1085      C1090   1.394       .  A
C1085      H1095   1.083       .  S
C1086      C1087   1.407       .  A
C1086      C1091   1.482       .  S
C1087      C1088   1.403       .  A
C1087      H1092   1.083       .  S
C1088      C1089   1.404       .  A
C1088      H1093   1.083   1_545  S
C1089      C1090   1.401       .  A
C1090      H1094   1.083       .  S
C1091      C1096   1.404       .  A
C1091      C1100   1.404       .  A
C1096      C1097   1.401       .  A
C1096      H1101   1.083       .  S
C1097      C1098   1.408       .  A
C1097      H1102   1.083       .  S
C1098      C1099   1.405       .  A
C1099      C1100   1.397       .  A
C1099      H1103   1.083       .  S
C1100      H1104   1.083       .  S
C1105      C1110   1.397       .  A
C1105      H1115   1.083       .  S
C1106      C1107   1.401   1_655  A
C1106      C1111   1.471       .  S
C1107      C1108   1.392       .  A
C1107      H1112   1.083       .  S
C1108      C1109   1.402   1_455  A
C1108      H1113   1.083   1_545  S
C1110      H1114   1.083       .  S
C1111      C1116   1.404       .  A
C1116      C1117   1.398       .  A
C1116      H1121   1.083       .  S
C1117      C1118   1.404       .  A
C1117      H1122   1.083       .  S
C1119      C1120   1.392       .  A
C1119      H1123   1.083       .  S
C1120      H1124   1.083       .  S
C1125      C1126   1.406       .  A
C1125      C1130   1.397       .  A
C1125      H1135   1.083       .  S
C1126      C1127   1.404       .  A
C1126      C1131   1.480       .  S
C1127      C1128   1.395   1_554  A
C1127      H1132   1.083   1_554  S
C1128      C1129   1.403   1_556  A
C1128      H1133   1.083       .  S
C1129      C1130   1.403       .  A
C1130      H1134   1.083       .  S
C1131      C1136   1.403       .  A
C1131      C1140   1.406       .  A
C1136      C1137   1.394       .  A
C1136      H1141   1.083       .  S
C1137      C1138   1.407       .  A
C1137      H1142   1.083       .  S
C1138      C1139   1.405       .  A
C1139      C1140   1.400       .  A
C1139      H1143   1.083       .  S
C1140      H1144   1.083       .  S
C1145      C1146   1.406       .  A
C1145      C1150   1.398       .  A
C1145      H1155   1.083       .  S
C1146      C1147   1.405       .  A
C1146      C1151   1.488       .  S
C1147      C1148   1.401       .  A
C1147      H1152   1.083       .  S
C1148      C1149   1.407       .  A
C1148      H1153   1.083       .  S
C1149      C1150   1.405       .  A
C1150      H1154   1.083       .  S
C1151      C1156   1.406       .  A
C1151      C1160   1.409       .  A
C1156      C1157   1.395       .  A
C1156      H1161   1.083       .  S
C1157      C1158   1.401       .  A
C1157      H1162   1.083   1_554  S
C1158      C1159   1.403       .  A
C1159      C1160   1.403       .  A
C1159      H1163   1.083   1_565  S
C1160      H1164   1.082       .  S
C1165      C1166   1.402   1_455  A
C1165      C1170   1.392       .  A
C1165      H1175   1.083       .  S
C1166      C1171   1.474       .  S
C1167      C1168   1.399       .  A
C1167      H1172   1.083       .  S
C1168      H1173   1.083       .  S
C1169      C1170   1.403   1_655  A
C1170      H1174   1.083       .  S
C1171      C1176   1.402   1_655  A
C1176      C1177   1.391       .  A
C1176      H1181   1.083       .  S
C1177      C1178   1.401   1_455  A
C1177      H1182   1.084       .  S
C1179      C1180   1.398       .  A
C1179      H1183   1.083       .  S
C1180      H1184   1.083       .  S
