geometry optimzed in LAMMPS
_audit_creation_date              2020-11-30 
_audit_creation_method            'lammps2cif' 
_symmetry_space_group_name_H-M    'P1' 
_symmetry_Int_Tables_number       1 
_symmetry_cell_setting            triclinic 
loop_ 
_symmetry_equiv_pos_as_xyz 
  x,y,z 
_cell_length_a                    36.747319634787374 
_cell_length_b                    36.732147448992635 
_cell_length_c                    36.7199869344576 
_cell_angle_alpha                 90.1082094490199 
_cell_angle_beta                  90.11530516458893 
_cell_angle_gamma                 90.2309649394794 
loop_ 
_atom_site_label 
_atom_site_type_symbol 
_atom_site_fract_x 
_atom_site_fract_y 
_atom_site_fract_z 
_atom_site_charge 
O1          O  0.10777285  0.48768314  0.55420660    -0.72990
O2          O  0.10504827  0.50873389  0.44659621    -0.73970
O3          O  0.10621271  0.55129607  0.51083260    -0.62590
O4          O  0.10681911  0.44452498  0.49002151    -0.71000
O5          O  0.04675140  0.44335550  0.49030181    -0.70550
O6          O  0.04626591  0.55096908  0.51394102    -0.61810
O7          O  0.04476132  0.50924870  0.44889080    -0.74310
O8          O  0.04758980  0.48534353  0.55534494    -0.73090
Cu9        Cu  0.10851467  0.49800669  0.50035594     1.04560
Cu10       Cu  0.04426103  0.49712714  0.50213540     1.04330
C11         C  0.07812240  0.48334405  0.57183230     0.93210
C12         C  0.07423213  0.51309721  0.43108998     0.92350
C13         C  0.07645105  0.56834776  0.51566860     0.84490
C14         C  0.07708603  0.42672826  0.48697159     0.90770
O15         O  0.49604139  0.90270230  0.55585903    -0.72990
O16         O  0.51355657  0.90225655  0.44731244    -0.73970
O17         O  0.55889203  0.90199734  0.51084266    -0.62590
O18         O  0.44978834  0.90354287  0.49265727    -0.71000
O19         O  0.45248824  0.96373641  0.48923056    -0.70550
O20         O  0.55920117  0.96236584  0.51297994    -0.61810
O21         O  0.51830616  0.96242427  0.44797452    -0.74310
O22         O  0.49470080  0.96293466  0.55449657    -0.73090
Cu23       Cu  0.50445446  0.90043941  0.50163808     1.04560
Cu24       Cu  0.50608613  0.96485170  0.50117556     1.04330
C25         C  0.49242141  0.93318510  0.57223793     0.93210
C26         C  0.51973192  0.93225234  0.43076592     0.92350
C27         C  0.57586153  0.93214949  0.51546576     0.84490
C28         C  0.43417739  0.93418106  0.48738778     0.90770
O29         O  0.91381840  0.55322108  0.49023263    -0.72990
O30         O  0.91396996  0.44535919  0.51084643    -0.73970
O31         O  0.91296253  0.50954444  0.55410685    -0.62590
O32         O  0.91477297  0.48899554  0.44648904    -0.71000
O33         O  0.97489910  0.48683725  0.44865100    -0.70550
O34         O  0.97309917  0.51216881  0.55529113    -0.61810
O35         O  0.97425448  0.44661568  0.51462747    -0.74310
O36         O  0.97416144  0.55270505  0.48922843    -0.73090
Cu37       Cu  0.91174694  0.49926034  0.50034005     1.04560
Cu38       Cu  0.97613747  0.49962515  0.50193578     1.04330
C39         C  0.94416803  0.56974970  0.48594063     0.93210
C40         C  0.94420008  0.42933273  0.51683702     0.92350
C41         C  0.94262601  0.51442870  0.57177538     0.84490
C42         C  0.94530663  0.48410419  0.43062753     0.90770
O43         O  0.52342548  0.44925500  0.03846918    -0.72990
O44         O  0.49750291  0.55539451  0.03547186    -0.73970
O45         O  0.56403336  0.51432849  0.03811786    -0.62590
O46         O  0.45821008  0.48899518  0.03562231    -0.71000
O47         O  0.45545173  0.49299279  0.09586264    -0.70550
O48         O  0.56379995  0.51262394  0.09847306    -0.61810
O49         O  0.49858411  0.55742415  0.09584566    -0.74310
O50         O  0.51928253  0.44938133  0.09858402    -0.73090
Cu51       Cu  0.51094858  0.50213148  0.03493443     1.04560
Cu52       Cu  0.50933612  0.50333876  0.09938266     1.04330
C53         C  0.52507759  0.43239019  0.06874309     0.93210
C54         C  0.49298568  0.57291417  0.06516574     0.92350
C55         C  0.58102334  0.51587922  0.06841314     0.84490
C56         C  0.44019930  0.48682693  0.06514410     0.90770
C57         C  0.22705246  0.42919908  0.06969191     0.03080
C58         C  0.25963917  0.44684866  0.05937750    -0.13070
C59         C  0.29293476  0.43634878  0.07538546     0.00580
C60         C  0.29314738  0.40875665  0.10173690    -0.11590
C61         C  0.26099386  0.39138899  0.11184296     0.03080
C62         C  0.22823054  0.40136721  0.09573734    -0.11010
H63         H  0.25912970  0.46825838  0.03918210     0.08670
H64         H  0.31852004  0.40071286  0.11447948     0.06200
H65         H  0.20342990  0.38736682  0.10362330     0.06050
C66         C  0.08067568  0.42389867  0.78459093     0.03080
C67         C  0.07107003  0.44223821  0.75231227    -0.13070
C68         C  0.08985032  0.43455564  0.71978813     0.00580
C69         C  0.11760602  0.40855477  0.71973337    -0.11590
C70         C  0.12666308  0.39000006  0.75155734     0.03080
C71         C  0.10842686  0.39786744  0.78390924    -0.11010
H72         H  0.04966836  0.46242960  0.75258765     0.08670
H73         H  0.13190710  0.40239639  0.69466777     0.06200
H74         H  0.11589580  0.38370713  0.80869820     0.06050
C75         C  0.94119958  0.42424161  0.21814009     0.03080
C76         C  0.95017006  0.44309609  0.25034339    -0.13070
C77         C  0.93164373  0.43482676  0.28281055     0.00580
C78         C  0.90462987  0.40778002  0.28285875    -0.11590
C79         C  0.89545684  0.38936900  0.25077791     0.03080
C80         C  0.91392235  0.39751592  0.21859403    -0.11010
H81         H  0.97120233  0.46385214  0.25013929     0.08670
H82         H  0.89085154  0.40094087  0.30803467     0.06200
H83         H  0.90695320  0.38309478  0.19372250     0.06050
O84         O  0.02477479  0.46425614  0.94864687    -0.72990
O85         O  0.99475912  0.46482840  0.05326496    -0.73970
O86         O  0.06195368  0.46552469  0.01623354    -0.62590
O87         O  0.95766263  0.46379509  0.98608409    -0.71000
O88         O  0.95658368  0.40350198  0.98978450    -0.70550
O89         O  0.06388479  0.40519578  0.01355602    -0.61810
O90         O  0.99847767  0.40472616  0.05519609    -0.74310
O91         O  0.02203413  0.40392997  0.94776178    -0.73090
Cu92       Cu  0.00975953  0.46655239  0.00101805     1.04560
Cu93       Cu  0.01026034  0.40210426  0.00156675     1.04330
C94         C  0.02795736  0.43416887  0.93157147     0.93210
C95         C  0.99218431  0.43514008  0.07093719     0.92350
C96         C  0.07943112  0.43583967  0.01946874     0.84490
C97         C  0.94054217  0.43368191  0.98365507     0.90770
C98         C  0.79277525  0.57153668  0.06484147     0.03080
C99         C  0.76338432  0.54694161  0.06161611    -0.13070
C100        C  0.73154862  0.55306433  0.08187261     0.00580
C101        C  0.73077976  0.58108861  0.10782103    -0.11590
C102        C  0.75832759  0.60744204  0.10897608     0.03080
C103        C  0.78826787  0.60318143  0.08593853    -0.11010
H104        H  0.76493875  0.52340157  0.04403169     0.08670
H105        H  0.70726036  0.58356257  0.12537240     0.06200
H106        H  0.80960003  0.62363749  0.08597317     0.06050
C107        C  0.92993187  0.57520470  0.78378401     0.03080
C108        C  0.93932232  0.55615205  0.75185623    -0.13070
C109        C  0.92089899  0.56361415  0.71903364     0.00580
C110        C  0.89425691  0.59082477  0.71825668    -0.11590
C111        C  0.88532591  0.60998851  0.74983762     0.03080
C112        C  0.90283318  0.60180768  0.78255425    -0.11010
H113        H  0.96042983  0.53566044  0.75260083     0.08670
H114        H  0.88072766  0.59741661  0.69284842     0.06200
H115        H  0.89554862  0.61640511  0.80716606     0.06050
C116        C  0.08359256  0.56222652  0.28284611     0.03080
C117        C  0.11220475  0.58775847  0.28209168    -0.13070
C118        C  0.12207472  0.60507762  0.24996064     0.00580
C119        C  0.10493170  0.59564485  0.21746479    -0.11590
C120        C  0.07747461  0.56898001  0.21663975     0.03080
C121        C  0.06622856  0.55267651  0.24967908    -0.11010
H122        H  0.12642009  0.59509439  0.30696917     0.08670
H123        H  0.11307353  0.60926057  0.19257490     0.06200
H124        H  0.04433402  0.53304312  0.24946137     0.06050
O125        O  0.95860269  0.59511725  0.01224235    -0.72990
O126        O  0.06504509  0.59326992  0.98546535    -0.73970
O127        O  0.99797032  0.59697980  0.94569682    -0.62590
O128        O  0.02504677  0.59195825  0.05248473    -0.71000
O129        O  0.02462747  0.53170734  0.04920020    -0.70550
O130        O  0.99510831  0.53671011  0.94368914    -0.61810
O131        O  0.06250716  0.53301488  0.98179731    -0.74310
O132        O  0.95741368  0.53472381  0.01044468    -0.73090
Cu133      Cu  0.01180035  0.59650763  0.99905108     1.04560
Cu134      Cu  0.00989946  0.53207048  0.99620642     1.04330
C135        C  0.94143309  0.56497992  0.01564800     0.93210
C136        C  0.08033886  0.56269393  0.97913420     0.92350
C137        C  0.99172472  0.56755478  0.92805867     0.84490
C138        C  0.02912364  0.56089256  0.06756599     0.90770
C139        C  0.79357639  0.42553467  0.93126524     0.03080
C140        C  0.79346417  0.40046897  0.90243931    -0.13070
C141        C  0.76178692  0.39331235  0.88300776     0.00580
C142        C  0.72994601  0.41164069  0.89176152    -0.11590
C143        C  0.72820433  0.43496001  0.92223723     0.03080
C144        C  0.76060401  0.44204772  0.94198993    -0.11010
H145        H  0.81828218  0.38641655  0.89500783     0.08670
H146        H  0.70585474  0.40623398  0.87550774     0.06200
H147        H  0.76040262  0.45972289  0.96544478     0.06050
C148        C  0.22888793  0.57631087  0.93295877     0.03080
C149        C  0.23152696  0.60799417  0.91193168    -0.13070
C150        C  0.26210239  0.61496944  0.89025097     0.00580
C151        C  0.29156611  0.59087226  0.89243804    -0.11590
C152        C  0.29134021  0.56195838  0.91731770     0.03080
C153        C  0.25949292  0.55384319  0.93684217    -0.11010
H154        H  0.20847348  0.62626646  0.91118162     0.08670
H155        H  0.31526817  0.59485129  0.87542864     0.06200
H156        H  0.25842546  0.52990855  0.95396559     0.06050
O157        O  0.56302691  0.48708358  0.90517191    -0.72990
O158        O  0.45617499  0.50960450  0.90376957    -0.73970
O159        O  0.52077947  0.55248330  0.90254019    -0.62590
O160        O  0.49749682  0.44490417  0.90707199    -0.71000
O161        O  0.49648887  0.44843720  0.96740023    -0.70550
O162        O  0.52285635  0.55439368  0.96287169    -0.61810
O163        O  0.45670389  0.51390481  0.96385656    -0.74310
O164        O  0.56316563  0.48876068  0.96559856    -0.73090
Cu165      Cu  0.50954194  0.49846987  0.90249924     1.04560
Cu166      Cu  0.50991249  0.50149072  0.96696018     1.04330
C167        C  0.57977412  0.48386461  0.93550929     0.93210
C168        C  0.43943502  0.51528999  0.93368056     0.92350
C169        C  0.52518454  0.57037567  0.93216293     0.84490
C170        C  0.49213994  0.43019171  0.93814317     0.90770
C171        C  0.57014100  0.28352814  0.08431337     0.03080
C172        C  0.59674478  0.28257821  0.11167719    -0.13070
C173        C  0.61518230  0.25034706  0.11943937     0.00580
C174        C  0.60713625  0.21888697  0.09954872    -0.11590
C175        C  0.58067378  0.21927853  0.07195179     0.03080
C176        C  0.56213719  0.25183859  0.06414864    -0.11010
H177        H  0.60369787  0.30727471  0.12639390     0.08670
H178        H  0.62177169  0.19398119  0.10539414     0.06200
H179        H  0.54226462  0.25268669  0.04233749     0.06050
C180        C  0.57988849  0.78447872  0.93308420     0.03080
C181        C  0.60484892  0.78545430  0.90418137    -0.13070
C182        C  0.61225245  0.75430823  0.88378865     0.00580
C183        C  0.59404323  0.72188982  0.89158783    -0.11590
C184        C  0.56900801  0.72014513  0.92023212     0.03080
C185        C  0.56194635  0.75145914  0.94129689    -0.11010
H186        H  0.61930748  0.81048675  0.89800651     0.08670
H187        H  0.60060644  0.69743420  0.87640281     0.06200
H188        H  0.54384990  0.74973091  0.96446363     0.06050
C189        C  0.59131148  0.93123410  0.22163179     0.03080
C190        C  0.57167456  0.94003204  0.25349919    -0.13070
C191        C  0.57638042  0.91911344  0.28535139     0.00580
C192        C  0.60042314  0.88961831  0.28506764    -0.11590
C193        C  0.61948262  0.88064243  0.25347994     0.03080
C194        C  0.61437178  0.90095898  0.22186024    -0.11010
H195        H  0.55357277  0.96323197  0.25373487     0.08670
H196        H  0.60514770  0.87434270  0.30986084     0.06200
H197        H  0.62905080  0.89349226  0.19738332     0.06050
O198        O  0.60434873  0.05586064  0.01307536    -0.72990
O199        O  0.60555359  0.94889248  0.99186819    -0.73970
O200        O  0.60319312  0.01313983  0.94854972    -0.62590
O201        O  0.60691412  0.99143724  0.05635999    -0.71000
O202        O  0.54693910  0.98944622  0.05793677    -0.70550
O203        O  0.54312057  0.01352801  0.95087169    -0.61810
O204        O  0.54555890  0.94761564  0.99260620    -0.74310
O205        O  0.54432612  0.05492663  0.01603704    -0.73090
Cu206      Cu  0.60704540  0.00239776  0.00240951     1.04560
Cu207      Cu  0.54293861  0.00131361  0.00442104     1.04330
C208        C  0.57431535  0.07258504  0.01767856     0.93210
C209        C  0.57584308  0.93100827  0.98904126     0.92350
C210        C  0.57246015  0.01732454  0.93270124     0.84490
C211        C  0.57748747  0.98641917  0.07429522     0.90770
C212        C  0.42883670  0.71616903  0.07208379     0.03080
C213        C  0.40376489  0.71980755  0.10050086    -0.13070
C214        C  0.38779149  0.75327385  0.10807248     0.00580
C215        C  0.39877807  0.78426094  0.08919995    -0.11590
C216        C  0.42606072  0.78194398  0.06273229     0.03080
C217        C  0.44060952  0.74773008  0.05346630    -0.11010
H218        H  0.39684159  0.69659814  0.11730299     0.08670
H219        H  0.38682692  0.81039273  0.09582024     0.06200
H220        H  0.46122576  0.74581528  0.03251075     0.06050
C221        C  0.42700525  0.21880398  0.94212754     0.03080
C222        C  0.40252090  0.21761460  0.91281936    -0.13070
C223        C  0.39371336  0.24910466  0.89375853     0.00580
C224        C  0.41078134  0.28188557  0.90269288    -0.11590
C225        C  0.43536560  0.28404198  0.93197621     0.03080
C226        C  0.44308493  0.25227860  0.95217874    -0.11010
H227        H  0.38988427  0.19201569  0.90503463     0.08670
H228        H  0.40440259  0.30602860  0.88700685     0.06200
H229        H  0.46053748  0.25365017  0.97589638     0.06050
C230        C  0.43361998  0.93103797  0.78438643     0.03080
C231        C  0.45411599  0.93912605  0.75306988    -0.13070
C232        C  0.44708481  0.92013007  0.72050244     0.00580
C233        C  0.41979697  0.89345021  0.71944382    -0.11590
C234        C  0.39990825  0.88500315  0.75065110     0.03080
C235        C  0.40695528  0.90371058  0.78303712    -0.11010
H236        H  0.47471179  0.96030030  0.75385647     0.08670
H237        H  0.41349411  0.87980747  0.69397230     0.06200
H238        H  0.39141147  0.89718638  0.80725961     0.06050
O239        O  0.40938028  0.05104061  0.99194432    -0.72990
O240        O  0.41362862  0.94394192  0.01094829    -0.73970
O241        O  0.41015331  0.00774660  0.05540736    -0.62590
O242        O  0.41282039  0.98738173  0.94762041    -0.71000
O243        O  0.47295798  0.98762589  0.94958994    -0.70550
O244        O  0.47017983  0.01394171  0.05513883    -0.61810
O245        O  0.47372083  0.94730612  0.01514868    -0.74310
O246        O  0.46935664  0.05417410  0.99031460    -0.73090
Cu247      Cu  0.40939805  0.99740462  0.00143311     1.04560
Cu248      Cu  0.47362348  0.00080502  0.00255053     1.04330
C249        C  0.43842102  0.06989196  0.98856843     0.93210
C250        C  0.44435618  0.92861574  0.01584464     0.92350
C251        C  0.43988686  0.01514545  0.07199085     0.84490
C252        C  0.44347583  0.98339158  0.93171526     0.90770
C253        C  0.78847872  0.93766051  0.57562883     0.03080
C254        C  0.75632413  0.94452090  0.55588672    -0.13070
C255        C  0.72566303  0.92194022  0.56113334     0.00580
C256        C  0.72888673  0.89142064  0.58383601    -0.11590
C257        C  0.75942160  0.88641102  0.60625126     0.03080
C258        C  0.78860997  0.91084736  0.60272895    -0.11010
H259        H  0.75523302  0.96738711  0.53741769     0.08670
H260        H  0.70616306  0.87262354  0.58543223     0.06200
H261        H  0.81222448  0.90856389  0.62022367     0.06050
C262        C  0.92979316  0.28189455  0.56716957     0.03080
C263        C  0.89943943  0.28032303  0.59021854    -0.13070
C264        C  0.88868040  0.24762392  0.60616159     0.00580
C265        C  0.90792911  0.21587481  0.59857981    -0.11590
C266        C  0.93875314  0.21652047  0.57601087     0.03080
C267        C  0.94987924  0.24987545  0.56039261    -0.11010
H268        H  0.88476614  0.30503038  0.59676617     0.08670
H269        H  0.89946843  0.19062129  0.61133538     0.06200
H270        H  0.97456875  0.25123902  0.54444869     0.06050
C271        C  0.08238207  0.71659289  0.56774435     0.03080
C272        C  0.10794257  0.71750881  0.59619113    -0.13070
C273        C  0.11846013  0.75040842  0.61236238     0.00580
C274        C  0.10278836  0.78280457  0.60005976    -0.11590
C275        C  0.07590012  0.78234090  0.57287900     0.03080
C276        C  0.06571501  0.74914346  0.55648725    -0.11010
H277        H  0.12061555  0.69240295  0.60502897     0.08670
H278        H  0.11181705  0.80863703  0.61117125     0.06200
H279        H  0.04608263  0.74889958  0.53445244     0.06050
O280        O  0.95360640  0.98834283  0.59556127    -0.72990
O281        O  0.06196772  0.00550781  0.59516749    -0.73970
O282        O  0.99905444  0.05066880  0.59761154    -0.62590
O283        O  0.01645395  0.94289575  0.59316105    -0.71000
O284        O  0.02030128  0.94662817  0.53310311    -0.70550
O285        O  0.99527469  0.05326224  0.53771574    -0.61810
O286        O  0.06059449  0.01214713  0.53519761    -0.74310
O287        O  0.95425007  0.98729823  0.53528840    -0.73090
Cu288      Cu  0.00780188  0.99676104  0.59748752     1.04560
Cu289      Cu  0.00752432  0.99988155  0.53327246     1.04330
C290        C  0.93686160  0.98500630  0.56521541     0.93210
C291        C  0.07828499  0.01188408  0.56512223     0.92350
C292        C  0.99362441  0.06913224  0.56868961     0.84490
C293        C  0.02195967  0.92791503  0.56226217     0.90770
C294        C  0.57451455  0.07743936  0.71933959     0.03080
C295        C  0.59856928  0.10712268  0.72069366    -0.13070
C296        C  0.61468423  0.11771929  0.75352131     0.00580
C297        C  0.60668642  0.09868946  0.78541037    -0.11590
C298        C  0.58250152  0.06910011  0.78483568     0.03080
C299        C  0.56595943  0.05859068  0.75170504    -0.11010
H300        H  0.60555985  0.12141776  0.69583803     0.08670
H301        H  0.61976328  0.10660520  0.81073585     0.06200
H302        H  0.54747402  0.03555717  0.75095848     0.06050
C303        C  0.44527878  0.08214459  0.28216227     0.03080
C304        C  0.45274392  0.06313433  0.24968507    -0.13070
C305        C  0.43283922  0.07117503  0.21791776     0.00580
C306        C  0.40554722  0.09759808  0.21895052    -0.11590
C307        C  0.39802369  0.11634755  0.25114124     0.03080
C308        C  0.41758517  0.10825700  0.28272605    -0.11010
H309        H  0.47382069  0.04260741  0.24909194     0.08670
H310        H  0.39035103  0.10388106  0.19441315     0.06200
H311        H  0.41095780  0.12198565  0.30800731     0.06050
C312        C  0.22526526  0.06307547  0.57700500     0.03080
C313        C  0.22547882  0.08931864  0.60477852    -0.13070
C314        C  0.25466020  0.11374521  0.60856570     0.00580
C315        C  0.28496568  0.10921178  0.58577173    -0.11590
C316        C  0.28736419  0.07954297  0.56196662     0.03080
C317        C  0.25677284  0.05724374  0.55620268    -0.11010
H318        H  0.20248639  0.09057186  0.62292082     0.08670
H319        H  0.30813560  0.12741676  0.58799593     0.06200
H320        H  0.25759387  0.03548692  0.53626650     0.06050
O321        O  0.51932716  0.03352268  0.55451548    -0.72990
O322        O  0.49224759  0.03502690  0.44817857    -0.73970
O323        O  0.55818426  0.03264682  0.48749191    -0.62590
O324        O  0.45258221  0.03566684  0.51475241    -0.71000
O325        O  0.45335912  0.09597178  0.51156899    -0.70550
O326        O  0.56122797  0.09283865  0.49177305    -0.61810
O327        O  0.49745860  0.09500600  0.44788311    -0.74310
O328        O  0.51733588  0.09381841  0.55616090    -0.73090
Cu329      Cu  0.50545818  0.03218869  0.50132245     1.04560
Cu330      Cu  0.50739302  0.09656442  0.50195310     1.04330
C331        C  0.52218509  0.06334163  0.57219262     0.93210
C332        C  0.49141830  0.06513405  0.43089087     0.92350
C333        C  0.57630663  0.06219811  0.48534024     0.84490
C334        C  0.43610437  0.06612179  0.51647667     0.90770
C335        C  0.28967088  0.92777075  0.42597394     0.03080
C336        C  0.28958664  0.90130037  0.39852035    -0.13070
C337        C  0.26085332  0.89900851  0.37366446     0.00580
C338        C  0.23152267  0.92274886  0.37801787    -0.11590
C339        C  0.22646788  0.94248391  0.41066759     0.03080
C340        C  0.25696899  0.94615305  0.43421972    -0.11010
H341        H  0.31272406  0.88331608  0.39612681     0.08670
H342        H  0.21054607  0.92295619  0.35725826     0.06200
H343        H  0.25587092  0.96224160  0.45869752     0.06050
C344        C  0.92785538  0.71691397  0.43789491     0.03080
C345        C  0.90267462  0.71411814  0.40937279    -0.13070
C346        C  0.89216411  0.74479386  0.38993054     0.00580
C347        C  0.90672362  0.77874750  0.39893191    -0.11590
C348        C  0.92952369  0.78302571  0.42938662     0.03080
C349        C  0.94091464  0.75158347  0.44849575    -0.11010
H350        H  0.89146124  0.68775374  0.40196319     0.08670
H351        H  0.89992157  0.80197423  0.38216986     0.06200
H352        H  0.95985095  0.75399796  0.47101657     0.06050
C353        C  0.78751971  0.06594871  0.42628586     0.03080
C354        C  0.75363511  0.05611799  0.44121778    -0.13070
C355        C  0.72194184  0.07461123  0.43021068     0.00580
C356        C  0.72475838  0.10337576  0.40532640    -0.11590
C357        C  0.75809230  0.11209872  0.38940614     0.03080
C358        C  0.78945217  0.09367867  0.40019848    -0.11010
H359        H  0.75191738  0.03420896  0.46086529     0.08670
H360        H  0.70074263  0.11868027  0.39776545     0.06200
H361        H  0.81543220  0.10080512  0.38814256     0.06050
C362        C  0.08392456  0.28109394  0.42944937     0.03080
C363        C  0.10895344  0.28252092  0.40070083    -0.13070
C364        C  0.11589442  0.25175080  0.37957087     0.00580
C365        C  0.09769897  0.21920688  0.38692134    -0.11590
C366        C  0.07343337  0.21678833  0.41620555     0.03080
C367        C  0.06612644  0.24795454  0.43738603    -0.11010
H368        H  0.12341782  0.30765317  0.39495328     0.08670
H369        H  0.10371177  0.19518148  0.37084139     0.06200
H370        H  0.04779205  0.24612604  0.46037719     0.06050
O371        O  0.95388803  0.01492696  0.46802050    -0.72990
O372        O  0.05966122  0.98667856  0.46023718    -0.73970
O373        O  0.02106101  0.05323426  0.46204181    -0.62590
O374        O  0.99187846  0.94772851  0.46682770    -0.71000
O375        O  0.98853403  0.94503592  0.40664080    -0.70550
O376        O  0.01307378  0.05253628  0.40213015    -0.61810
O377        O  0.05454715  0.98705677  0.40006723    -0.74310
O378        O  0.94807064  0.01037544  0.40819002    -0.73090
Cu379      Cu  0.00683754  0.00066216  0.46630183     1.04560
Cu380      Cu  0.00098656  0.99870718  0.40212825     1.04330
C381        C  0.93415267  0.01649152  0.43944333     0.93210
C382        C  0.07384797  0.98275210  0.42874039     0.92350
C383        C  0.02120052  0.06962022  0.43144863     0.84490
C384        C  0.98522507  0.92984707  0.43778472     0.90770
C385        C  0.78665970  0.27608077  0.25045372     0.03080
C386        C  0.75874528  0.27631095  0.22441898    -0.13070
C387        C  0.73181082  0.24918039  0.22465213     0.00580
C388        C  0.73219903  0.22252321  0.25192641    -0.11590
C389        C  0.75946450  0.22279658  0.27866134     0.03080
C390        C  0.78684684  0.24937472  0.27760100    -0.11010
H391        H  0.75799051  0.29762067  0.20405985     0.08670
H392        H  0.71114859  0.20177032  0.25251858     0.06200
H393        H  0.80811525  0.24946379  0.29808894     0.06050
C394        C  0.77921273  0.73844766  0.28174499     0.03080
C395        C  0.75448828  0.76724243  0.28107317    -0.13070
C396        C  0.73041067  0.77094254  0.25186036     0.00580
C397        C  0.73221115  0.74683366  0.22239417    -0.11590
C398        C  0.75678113  0.71757823  0.22270823     0.03080
C399        C  0.77908400  0.71278314  0.25351061    -0.11010
H400        H  0.75422998  0.78699105  0.30303180     0.08670
H401        H  0.71452524  0.75127182  0.19920882     0.06200
H402        H  0.79725178  0.68971059  0.25522581     0.06050
C403        C  0.25240117  0.77694794  0.27299504     0.03080
C404        C  0.23142313  0.74523216  0.27783794    -0.13070
C405        C  0.23069418  0.71808301  0.25090552     0.00580
C406        C  0.25341896  0.72100985  0.22051643    -0.11590
C407        C  0.27574216  0.75157430  0.21637515     0.03080
C408        C  0.27407119  0.77986610  0.24168371    -0.11010
H409        H  0.21584657  0.74114090  0.30237835     0.08670
H410        H  0.25382138  0.69952444  0.20027384     0.06200
H411        H  0.29051193  0.80397873  0.23708846     0.06050
C412        C  0.28351331  0.78014560  0.74869482     0.03080
C413        C  0.28207964  0.75564217  0.77772935    -0.13070
C414        C  0.25768091  0.72605827  0.77727572     0.00580
C415        C  0.23443718  0.72192528  0.74694982    -0.11590
C416        C  0.23349441  0.74843348  0.71957948     0.03080
C417        C  0.25863838  0.77707803  0.72002155    -0.11010
H418        H  0.30031398  0.75988600  0.80055779     0.08670
H419        H  0.21632270  0.69870564  0.74486694     0.06200
H420        H  0.25885769  0.79683440  0.69812921     0.06050
C421        C  0.28863152  0.24959481  0.77732287     0.03080
C422        C  0.26413807  0.27860769  0.77669885    -0.13070
C423        C  0.23976016  0.28233774  0.74769549     0.00580
C424        C  0.24041713  0.25735470  0.71887883    -0.11590
C425        C  0.26370620  0.22704525  0.71976621     0.03080
C426        C  0.28706472  0.22296220  0.74997701    -0.11010
H427        H  0.26390271  0.29808168  0.79890927     0.08670
H428        H  0.22223225  0.26157288  0.69605002     0.06200
H429        H  0.30415624  0.19918664  0.75247684     0.06050
C430        C  0.75504680  0.28259045  0.77200849     0.03080
C431        C  0.72764291  0.25597039  0.77374122    -0.13070
C432        C  0.72665443  0.22748705  0.74835665     0.00580
C433        C  0.75267458  0.22614687  0.72057756    -0.11590
C434        C  0.78061430  0.25208392  0.71921253     0.03080
C435        C  0.78187862  0.28015107  0.74504343    -0.11010
H436        H  0.70724052  0.25726401  0.79498734     0.08670
H437        H  0.75145223  0.20471139  0.70027976     0.06200
H438        H  0.80353272  0.30024802  0.74398077     0.06050
C439        C  0.75387121  0.77883440  0.72280629     0.03080
C440        C  0.77644361  0.74806395  0.72047395    -0.13070
C441        C  0.77600139  0.72147253  0.74771339     0.00580
C442        C  0.75129216  0.72418245  0.77647181    -0.11590
C443        C  0.72839819  0.75437807  0.77898223     0.03080
C444        C  0.73112578  0.78238610  0.75332428    -0.11010
H445        H  0.79456579  0.74451517  0.69752525     0.08670
H446        H  0.74998702  0.70295979  0.79689461     0.06200
H447        H  0.71526182  0.80670511  0.75739625     0.06050
C448        C  0.25934010  0.27752539  0.21908502     0.03080
C449        C  0.28615565  0.25062048  0.22092265    -0.13070
C450        C  0.28419596  0.22331903  0.24739046     0.00580
C451        C  0.25621601  0.22388020  0.27317961    -0.11590
C452        C  0.23035919  0.25182254  0.27277501     0.03080
C453        C  0.23163777  0.27817734  0.24526862    -0.11010
H454        H  0.30870900  0.25098787  0.20197094     0.08670
H455        H  0.25514599  0.20320867  0.29418109     0.06200
H456        H  0.21130267  0.29946619  0.24448542     0.06050
C457        C  0.06738223  0.11732183  0.44252745    -0.20350
C458        C  0.03244662  0.10823453  0.43005422    -0.06920
C459        C  0.00960206  0.13583019  0.41618721     0.13950
C460        C  0.02264501  0.17187561  0.41439337    -0.20400
C461        C  0.05825665  0.18055325  0.42523984    -0.06920
C462        C  0.08085405  0.15297885  0.43952567     0.13940
C463        C  0.11952042  0.16098894  0.45082233    -0.23750
H464        H  0.08473047  0.09607671  0.45332403     0.15230
H465        H  0.00562426  0.19303930  0.40298960     0.15260
C466        C  0.97157260  0.12731258  0.40334800    -0.23700
H467        H  0.13351393  0.13610379  0.46018474     0.05470
H468        H  0.11980445  0.18138224  0.47317339     0.08690
H469        H  0.13541565  0.17155474  0.42747144     0.08690
H470        H  0.95574144  0.11492520  0.42585877     0.08680
H471        H  0.97249116  0.10802364  0.38008045     0.08200
H472        H  0.95710674  0.15219230  0.39424762     0.05450
C473        C  0.18094048  0.25358838  0.36351815    -0.20350
C474        C  0.14466406  0.25276112  0.35182209    -0.06920
C475        C  0.13651704  0.25301082  0.31433284     0.13950
C476        C  0.16512235  0.25305720  0.28915290    -0.20400
C477        C  0.20157761  0.25325884  0.30074619    -0.06920
C478        C  0.20960083  0.25441655  0.33849090     0.13940
C479        C  0.24772358  0.25780055  0.35348882    -0.23750
H480        H  0.18690298  0.25397512  0.39246449     0.15230
H481        H  0.15904932  0.25255284  0.26025212     0.15260
C482        C  0.09773732  0.25373320  0.30101497    -0.23700
H483        H  0.24933178  0.28179642  0.37187303     0.05470
H484        H  0.26862805  0.26182569  0.33220445     0.08690
H485        H  0.25452237  0.23299773  0.36930361     0.08690
H486        H  0.08383501  0.27820299  0.31195178     0.08680
H487        H  0.08310526  0.22895161  0.31027690     0.08680
H488        H  0.09622775  0.25468704  0.27081909     0.05450
C489        C  0.84479841  0.06366336  0.46175853    -0.20350
C490        C  0.82160097  0.04722158  0.43614954    -0.06920
C491        C  0.83429732  0.01780627  0.41510264     0.13950
C492        C  0.87081240  0.00723813  0.41812758    -0.20400
C493        C  0.89488134  0.02524272  0.44195383    -0.06920
C494        C  0.88128240  0.05277158  0.46528272     0.13940
C495        C  0.90540343  0.07227108  0.49230606    -0.23750
H496        H  0.83480508  0.08640816  0.47766070     0.15230
H497        H  0.88094030  0.98552558  0.40091725     0.15260
C498        C  0.80962897  0.99863982  0.38837142    -0.23700
H499        H  0.89060445  0.09412683  0.50698566     0.05470
H500        H  0.92878412  0.08495648  0.47803645     0.08690
H501        H  0.91553496  0.05274085  0.51295289     0.08690
H502        H  0.79985980  0.01815916  0.36751307     0.08680
H503        H  0.78587342  0.98701519  0.40301312     0.08680
H504        H  0.82380298  0.97607974  0.37414920     0.05450
C505        C  0.75370801  0.17652140  0.37071880    -0.20350
C506        C  0.75972176  0.14018318  0.36089119    -0.06920
C507        C  0.76509363  0.13090122  0.32396512     0.13950
C508        C  0.76498993  0.15849801  0.29765347    -0.20400
C509        C  0.75953480  0.19495406  0.30753186    -0.06920
C510        C  0.75351661  0.20412474  0.34442129     0.13940
C511        C  0.74560854  0.24269468  0.35594512    -0.23750
H512        H  0.74890798  0.18319967  0.39907336     0.15230
H513        H  0.76912555  0.15167494  0.26922560     0.15260
C514        C  0.76982803  0.09186686  0.31222000    -0.23700
H515        H  0.73978035  0.24457638  0.38555753     0.05470
H516        H  0.72148799  0.25294780  0.34093047     0.08690
H517        H  0.76934546  0.26049336  0.35022663     0.08690
H518        H  0.74585717  0.07553201  0.32083201     0.08680
H519        H  0.79476187  0.08039335  0.32474071     0.08680
H520        H  0.77246900  0.08940750  0.28218874     0.05450
C521        C  0.98060237  0.82628568  0.44166795    -0.20350
C522        C  0.94296597  0.82031471  0.43861790    -0.06920
C523        C  0.91921794  0.85074596  0.44050281     0.13950
C524        C  0.93395013  0.88613860  0.44060888    -0.20400
C525        C  0.97160527  0.89195003  0.44039230    -0.06920
C526        C  0.99506371  0.86175602  0.44311734     0.13940
C527        C  0.03539288  0.86694480  0.44594801    -0.23750
H528        H  0.99889569  0.80322026  0.44109400     0.15230
H529        H  0.91597543  0.90948862  0.44066889     0.15260
C530        C  0.87846491  0.84635515  0.44400720    -0.23700
H531        H  0.04998889  0.84072522  0.44922491     0.05470
H532        H  0.04204989  0.88471793  0.46947881     0.08690
H533        H  0.04470812  0.87990679  0.42067566     0.08690
H534        H  0.87213375  0.82954495  0.46829697     0.08680
H535        H  0.86612735  0.83364976  0.41964453     0.08680
H536        H  0.86481572  0.87305652  0.44714344     0.05450
C537        C  0.82812242  0.73467058  0.37257991    -0.20350
C538        C  0.86400387  0.74160332  0.36160750    -0.06920
C539        C  0.87223974  0.74539823  0.32433926     0.13950
C540        C  0.84396781  0.74322868  0.29878625    -0.20400
C541        C  0.80785087  0.73750327  0.30982411    -0.06920
C542        C  0.79980555  0.73261418  0.34705784     0.13940
C543        C  0.76168337  0.72447931  0.35981680    -0.23750
H544        H  0.82226062  0.73131453  0.40131113     0.15230
H545        H  0.84990009  0.74672472  0.27008669     0.15260
C546        C  0.91075592  0.75123963  0.31156150    -0.23700
H547        H  0.76071358  0.71978057  0.38967382     0.05470
H548        H  0.75131824  0.69959599  0.34599806     0.08690
H549        H  0.74343157  0.74761486  0.35361524     0.08690
H550        H  0.92808839  0.72838508  0.32092066     0.08680
H551        H  0.92165994  0.77718588  0.32268271     0.08680
H552        H  0.91239262  0.75257727  0.28139077     0.05450
C553        C  0.15992972  0.93086158  0.40655705    -0.20350
C554        C  0.18791066  0.95385171  0.41970149    -0.06920
C555        C  0.17729917  0.98644009  0.43781938     0.13950
C556        C  0.13977687  0.99454807  0.44144383    -0.20400
C557        C  0.11270232  0.97247604  0.42542873    -0.06920
C558        C  0.12339591  0.94081807  0.40663587     0.13940
C559        C  0.09772807  0.91660718  0.38553208    -0.23750
H560        H  0.16650889  0.90475189  0.39455648     0.15230
H561        H  0.13154100  0.01899206  0.45578431     0.15260
C562        C  0.20447765  0.01350775  0.45249789    -0.23700
H563        H  0.10558675  0.91684446  0.35634418     0.05470
H564        H  0.06896977  0.92496179  0.38716110     0.08690
H565        H  0.10014127  0.88824798  0.39560270     0.08690
H566        H  0.22536079  0.01978115  0.43160203     0.08680
H567        H  0.21726542  0.00280288  0.47761612     0.08680
H568        H  0.19119008  0.03952913  0.46010313     0.05450
C569        C  0.22531757  0.85167123  0.34008557    -0.20350
C570        C  0.25900448  0.86918456  0.34601522    -0.06920
C571        C  0.28996680  0.85598995  0.32742407     0.13950
C572        C  0.28724127  0.82372135  0.30737978    -0.20400
C573        C  0.25343417  0.80694822  0.30035951    -0.06920
C574        C  0.22174460  0.82202856  0.31622163     0.13940
C575        C  0.18384023  0.80882584  0.30710323    -0.23750
H576        H  0.20130139  0.86113694  0.35419581     0.15230
H577        H  0.31175506  0.81288434  0.29514913     0.15260
C578        C  0.32549134  0.87648801  0.32533401    -0.23700
H579        H  0.16282542  0.82816228  0.31688717     0.05470
H580        H  0.17812093  0.78249765  0.32056699     0.08690
H581        H  0.18048450  0.80629656  0.27714675     0.08690
H582        H  0.34686880  0.86177808  0.34075873     0.08680
H583        H  0.32305484  0.90470429  0.33548271     0.08680
H584        H  0.33410412  0.87875322  0.29644026     0.05450
C585        C  0.62104981  0.05313529  0.43641494    -0.20350
C586        C  0.61439472  0.06104260  0.47310070    -0.06920
C587        C  0.64378299  0.06892435  0.49661228     0.13950
C588        C  0.67919054  0.07095689  0.48234592    -0.20400
C589        C  0.68561019  0.06546836  0.44508115    -0.06920
C590        C  0.65628851  0.05546209  0.42196831     0.13940
C591        C  0.66191197  0.04709422  0.38212146    -0.23750
H592        H  0.59833653  0.04629150  0.41873829     0.15230
H593        H  0.70172604  0.07828830  0.50002111     0.15260
C594        C  0.63776598  0.07474084  0.53668780    -0.23700
H595        H  0.63598011  0.03946266  0.36855998     0.05470
H596        H  0.68135556  0.02422402  0.37917774     0.08690
H597        H  0.67246659  0.07113639  0.36735525     0.08690
H598        H  0.62575382  0.04966477  0.54846359     0.08680
H599        H  0.61902973  0.09795094  0.54112590     0.08680
H600        H  0.66364170  0.08062041  0.55127701     0.05450
C601        C  0.33363192  0.08050772  0.51229847    -0.20350
C602        C  0.32375304  0.07028714  0.54774193    -0.06920
C603        C  0.35054485  0.05675131  0.57178669     0.13950
C604        C  0.38680503  0.05527414  0.56038654    -0.20400
C605        C  0.39706231  0.06669870  0.52562332    -0.06920
C606        C  0.37019114  0.07874538  0.50090333     0.13940
C607        C  0.38016187  0.08974993  0.46272560    -0.23750
H608        H  0.31302266  0.09115020  0.49409567     0.15230
H609        H  0.40756064  0.04667650  0.57921035     0.15260
C610        C  0.34097679  0.04463807  0.60986467    -0.23700
H611        H  0.35584538  0.09792089  0.44674514     0.05470
H612        H  0.39326850  0.06653127  0.44853687     0.08690
H613        H  0.39935426  0.11314892  0.46347114     0.08690
H614        H  0.32039284  0.02246381  0.60856201     0.08680
H615        H  0.32991228  0.06769346  0.62584257     0.08680
H616        H  0.36504169  0.03438058  0.62485287     0.05450
C617        C  0.28869803  0.14995651  0.65478848    -0.20350
C618        C  0.25530843  0.14251904  0.63743198    -0.06920
C619        C  0.22487818  0.16453904  0.64624995     0.13950
C620        C  0.22823161  0.19067394  0.67400628    -0.20400
C621        C  0.26203741  0.19896024  0.69020958    -0.06920
C622        C  0.29308208  0.17970265  0.67815866     0.13940
C623        C  0.33149438  0.19192211  0.68589822    -0.23750
H624        H  0.31249568  0.13385712  0.64842732     0.15230
H625        H  0.20403096  0.20499776  0.68260294     0.15260
C626        C  0.18948005  0.16307409  0.62536186    -0.23700
H627        H  0.34791484  0.19064905  0.66055296     0.05470
H628        H  0.34419050  0.17395145  0.70656604     0.08690
H629        H  0.33245217  0.22073847  0.69463383     0.08690
H630        H  0.17267076  0.13962158  0.63411236     0.08680
H631        H  0.19485151  0.16190473  0.59566063     0.08680
H632        H  0.17289917  0.18781161  0.63033583     0.05450
C633        C  0.45313660  0.04319194  0.33620087    -0.20350
C634        C  0.46404090  0.07402140  0.31681961    -0.06920
C635        C  0.48713046  0.09982192  0.33367000     0.13950
C636        C  0.49650345  0.09555326  0.37051812    -0.20400
C637        C  0.48359726  0.06586474  0.39098374    -0.06920
C638        C  0.46267206  0.03864906  0.37297180     0.13940
C639        C  0.44847714  0.00565101  0.39236660    -0.23750
H640        H  0.43529976  0.02359604  0.32300470     0.15230
H641        H  0.51350003  0.11594912  0.38355901     0.15260
C642        C  0.50165876  0.13197451  0.31277148    -0.23700
H643        H  0.43183217  0.98822716  0.37399768     0.05470
H644        H  0.43124114  0.01408436  0.41568396     0.08690
H645        H  0.47146909  0.98885479  0.40200160     0.08690
H646        H  0.47898606  0.14937669  0.30336406     0.08680
H647        H  0.51716475  0.12221673  0.28876121     0.08680
H648        H  0.52012051  0.14903269  0.32971709     0.05450
C649        C  0.33336370  0.13294012  0.24360728    -0.20350
C650        C  0.36907959  0.14397702  0.25160886    -0.06920
C651        C  0.37682260  0.18115703  0.25790820     0.13950
C652        C  0.34840834  0.20638780  0.25663008    -0.20400
C653        C  0.31265473  0.19529291  0.24908917    -0.06920
C654        C  0.30496678  0.15823150  0.24216993     0.13940
C655        C  0.26725180  0.14553366  0.23192600    -0.23750
H656        H  0.32780623  0.10442365  0.23820039     0.15230
H657        H  0.35405119  0.23499421  0.26144137     0.15260
C658        C  0.41504789  0.19450760  0.26479374    -0.23700
H659        H  0.26657351  0.11592406  0.22575129     0.05470
H660        H  0.25782834  0.16035929  0.20734664     0.08690
H661        H  0.24809741  0.15056429  0.25465834     0.08690
H662        H  0.43314515  0.18573318  0.24226725     0.08680
H663        H  0.42521647  0.18351346  0.29094758     0.08680
H664        H  0.41635019  0.22467168  0.26660780     0.05450
C665        C  0.52309340  0.07492268  0.67540632    -0.20350
C666        C  0.55953650  0.06674158  0.68331635    -0.06920
C667        C  0.58254156  0.05461049  0.65487736     0.13950
C668        C  0.56884005  0.05214025  0.61928200    -0.20400
C669        C  0.53318606  0.06258292  0.61096927    -0.06920
C670        C  0.50975377  0.07342713  0.63943725     0.13940
C671        C  0.47091412  0.08385590  0.63191716    -0.23750
H672        H  0.50561284  0.08450029  0.69712128     0.15230
H673        H  0.58659017  0.04318004  0.59759410     0.15260
C674        C  0.62193587  0.04490256  0.66090154    -0.23700
H675        H  0.45637144  0.09164018  0.65723142     0.05470
H676        H  0.45626353  0.06054690  0.61961450     0.08690
H677        H  0.47003799  0.10729115  0.61291905     0.08690
H678        H  0.63011457  0.04603144  0.68995097     0.08680
H679        H  0.63954797  0.06391638  0.64530631     0.08680
H680        H  0.62684358  0.01672756  0.65111488     0.05450
C681        C  0.67884290  0.13660302  0.75955202    -0.20350
C682        C  0.64254686  0.14662400  0.75380528    -0.06920
C683        C  0.63369867  0.18345624  0.74769360     0.13950
C684        C  0.66173618  0.20941438  0.74631525    -0.20400
C685        C  0.69820639  0.19919690  0.75081844    -0.06920
C686        C  0.70688394  0.16248972  0.75818603     0.13940
C687        C  0.74545105  0.15067733  0.76556659    -0.23750
H688        H  0.68523577  0.10827220  0.76467332     0.15230
H689        H  0.65528491  0.23775025  0.74133636     0.15260
C690        C  0.59476909  0.19541663  0.74333094    -0.23700
H691        H  0.74687734  0.12135813  0.77276330     0.05470
H692        H  0.75686231  0.16661171  0.78866997     0.08690
H693        H  0.76256603  0.15490131  0.74110207     0.08690
H694        H  0.57894440  0.18759798  0.76785155     0.08680
H695        H  0.58247452  0.18234404  0.71896313     0.08680
H696        H  0.59270025  0.22537994  0.73992753     0.05450
C697        C  0.12895073  0.05065713  0.54407112    -0.20350
C698        C  0.11754303  0.02079693  0.56489413    -0.06920
C699        C  0.14344911  0.00135966  0.58572107     0.13950
C700        C  0.17967018  0.01391404  0.58712624    -0.20400
C701        C  0.19029004  0.04526924  0.56817972    -0.06920
C702        C  0.16485919  0.06344906  0.54596599     0.13940
C703        C  0.17520850  0.09752731  0.52570586    -0.23750
H704        H  0.10919364  0.06525530  0.52775037     0.15230
H705        H  0.19934276  0.00025289  0.60430827     0.15260
C706        C  0.13314812  0.96732339  0.60614694    -0.23700
H707        H  0.15168498  0.10867306  0.51066877     0.05470
H708        H  0.19729042  0.09151938  0.50604107     0.08690
H709        H  0.18463816  0.11878141  0.54505890     0.08690
H710        H  0.12094758  0.94718745  0.58704747     0.08680
H711        H  0.11334358  0.97380921  0.62794017     0.08680
H712        H  0.15719500  0.95454255  0.61920932     0.05450
C713        C  0.02512898  0.82592823  0.57895819    -0.20350
C714        C  0.05859774  0.81721630  0.56294604    -0.06920
C715        C  0.07775709  0.84407907  0.54320184     0.13950
C716        C  0.06417457  0.87972341  0.54200308    -0.20400
C717        C  0.03207773  0.88909161  0.56033687    -0.06920
C718        C  0.01160111  0.86164966  0.57790712     0.13940
C719        C  0.97555188  0.86995166  0.59547938    -0.23750
H720        H  0.01049793  0.80512813  0.59394992     0.15230
H721        H  0.07952201  0.90074746  0.52805062     0.15260
C722        C  0.11288558  0.83528013  0.52409227    -0.23700
H723        H  0.96247289  0.84501346  0.60654382     0.05470
H724        H  0.95683123  0.88197616  0.57502674     0.08690
H725        H  0.97938485  0.88936550  0.61835070     0.08690
H726        H  0.10813236  0.81310186  0.50403264     0.08680
H727        H  0.13367232  0.82642700  0.54412685     0.08680
H728        H  0.12390286  0.85923538  0.50926987     0.05450
C729        C  0.18083548  0.73354720  0.63202128    -0.20350
C730        C  0.14765916  0.75064683  0.64033930    -0.06920
C731        C  0.14262274  0.76591649  0.67540823     0.13950
C732        C  0.17123301  0.76454849  0.70071393    -0.20400
C733        C  0.20433785  0.74791246  0.69204855    -0.06920
C734        C  0.20916397  0.73182935  0.65760779     0.13940
C735        C  0.24402955  0.71265972  0.64812085    -0.23750
H736        H  0.18456396  0.72147642  0.60533174     0.15230
H737        H  0.16780737  0.77644307  0.72753458     0.15260
C738        C  0.10684100  0.78218602  0.68701933    -0.23700
H739        H  0.24322785  0.70123457  0.62010210     0.05470
H740        H  0.24864247  0.68991334  0.66744747     0.08690
H741        H  0.26720314  0.73206815  0.64988943     0.08690
H742        H  0.08453554  0.76217406  0.68261559     0.08680
H743        H  0.10111340  0.80734534  0.67151212     0.08680
H744        H  0.10702286  0.78969034  0.71633807     0.05450
C745        C  0.97749119  0.12800345  0.53833375    -0.20350
C746        C  0.98451681  0.10882544  0.57088031    -0.06920
C747        C  0.98117416  0.12780976  0.60450523     0.13950
C748        C  0.96952825  0.16411173  0.60448381    -0.20400
C749        C  0.95978289  0.18211821  0.57227527    -0.06920
C750        C  0.96480473  0.16417001  0.53861674     0.13940
C751        C  0.95515441  0.18223226  0.50310255    -0.23750
H752        H  0.98068690  0.11428382  0.51240347     0.15230
H753        H  0.96596443  0.17814840  0.63023712     0.15260
C754        C  0.98844519  0.11029319  0.64094436    -0.23700
H755        H  0.95898432  0.16358400  0.47960281     0.05470
H756        H  0.97288003  0.20631760  0.49869820     0.08690
H757        H  0.92622372  0.19081876  0.50343076     0.08690
H758        H  0.01693777  0.10043138  0.64213063     0.08680
H759        H  0.96910132  0.08744642  0.64542437     0.08680
H760        H  0.98481269  0.12969056  0.66388550     0.05450
C761        C  0.87020410  0.23958767  0.67019184    -0.20350
C762        C  0.86004633  0.24746290  0.63422559    -0.06920
C763        C  0.82345200  0.25573853  0.62604935     0.13950
C764        C  0.79795005  0.25681937  0.65438341    -0.20400
C765        C  0.80837900  0.24995566  0.69046400    -0.06920
C766        C  0.84474972  0.24071330  0.69848991     0.13940
C767        C  0.85655216  0.23130949  0.73665997    -0.23750
H768        H  0.89832225  0.23297799  0.67615672     0.15230
H769        H  0.76979934  0.26332810  0.64848753     0.15260
C770        C  0.81112839  0.26252722  0.58750293    -0.23700
H771        H  0.88567234  0.22338163  0.73773703     0.05470
H772        H  0.84006007  0.20811327  0.74692332     0.08690
H773        H  0.85291297  0.25509458  0.75492218     0.08690
H774        H  0.81782528  0.23863483  0.57024044     0.08680
H775        H  0.82477935  0.28707068  0.57640092     0.08680
H776        H  0.78129321  0.26701475  0.58592952     0.05450
C777        C  0.83540882  0.98553805  0.58662838    -0.20350
C778        C  0.82368178  0.95509915  0.56665429    -0.06920
C779        C  0.84856199  0.93684145  0.54379991     0.13950
C780        C  0.88496639  0.94838150  0.54260458    -0.20400
C781        C  0.89734753  0.97716779  0.56449492    -0.06920
C782        C  0.87203623  0.99694688  0.58567573     0.13940
C783        C  0.88347410  0.03019125  0.60695788    -0.23750
H784        H  0.81626256  0.99931355  0.60428009     0.15230
H785        H  0.90427664  0.93367659  0.52586831     0.15260
C786        C  0.83706149  0.90404889  0.52189446    -0.23700
H787        H  0.85990997  0.04337116  0.62044499     0.05470
H788        H  0.89612450  0.05038266  0.58833473     0.08690
H789        H  0.90328108  0.02264078  0.62845510     0.08690
H790        H  0.81547107  0.91183972  0.50223929     0.08680
H791        H  0.82651951  0.88241001  0.54009947     0.08680
H792        H  0.86028268  0.89251870  0.50660055     0.05450
C793        C  0.78809809  0.81544355  0.67693614    -0.20350
C794        C  0.75459541  0.80693169  0.69345340    -0.06920
C795        C  0.72259949  0.82343085  0.67962067     0.13950
C796        C  0.72565587  0.85004680  0.65256910    -0.20400
C797        C  0.75891865  0.85765003  0.63511241    -0.06920
C798        C  0.79025324  0.83818495  0.64639136     0.13940
C799        C  0.82567524  0.83806075  0.62568781    -0.23750
H800        H  0.81283958  0.80274116  0.68664734     0.15230
H801        H  0.70132485  0.86470531  0.64491191     0.15260
C802        C  0.68472356  0.81186858  0.69076698    -0.23700
H803        H  0.83457331  0.80952527  0.62126406     0.05470
H804        H  0.84698357  0.85257359  0.64160959     0.08690
H805        H  0.82327434  0.85012480  0.59822745     0.08690
H806        H  0.67672987  0.82527921  0.71655688     0.08680
H807        H  0.68300551  0.78179256  0.69329704     0.08680
H808        H  0.66425764  0.81993815  0.67000878     0.05450
C809        C  0.46042298  0.05770574  0.11998593    -0.20350
C810        C  0.43960644  0.02696735  0.11048058    -0.06920
C811        C  0.42016450  0.00811134  0.13780543     0.13950
C812        C  0.42059434  0.02159112  0.17368041    -0.20400
C813        C  0.44003747  0.05331055  0.18265933    -0.06920
C814        C  0.46063363  0.07125010  0.15568373     0.13940
C815        C  0.48204618  0.10525609  0.16441508    -0.23750
H816        H  0.47581050  0.07178895  0.09910170     0.15230
H817        H  0.40458257  0.00818787  0.19452153     0.15260
C818        C  0.39954554  0.97357544  0.12939704    -0.23700
H819        H  0.49700678  0.11559271  0.14026632     0.05470
H820        H  0.50218797  0.09935305  0.18617198     0.08690
H821        H  0.46345500  0.12704560  0.17387247     0.08690
H822        H  0.41826610  0.95319141  0.11734234     0.08680
H823        H  0.37712732  0.97925340  0.10997278     0.08680
H824        H  0.38736027  0.96153105  0.15429601     0.05450
C825        C  0.46943718  0.94038807  0.84064056    -0.20350
C826        C  0.43949455  0.95018001  0.81927894    -0.06920
C827        C  0.41263627  0.97332853  0.83388277     0.13950
C828        C  0.41555361  0.98488472  0.87018886    -0.20400
C829        C  0.44449890  0.97358986  0.89245133    -0.06920
C830        C  0.47225202  0.95153881  0.87715029     0.13940
C831        C  0.50353381  0.93739908  0.89950024    -0.23750
H832        H  0.48962210  0.92218966  0.82926053     0.15230
H833        H  0.39455693  0.00215255  0.88151729     0.15260
C834        C  0.38060160  0.98543173  0.81129371    -0.23700
H835        H  0.52109144  0.91859713  0.88368920     0.05470
H836        H  0.49280963  0.92224183  0.92327154     0.08690
H837        H  0.52088038  0.96031002  0.90877630     0.08690
H838        H  0.36381234  0.96161743  0.80309463     0.08680
H839        H  0.39047153  0.99963577  0.78652260     0.08680
H840        H  0.36280324  0.00443840  0.82657315     0.05450
C841        C  0.33457859  0.86959714  0.75511706    -0.20350
C842        C  0.37036783  0.85786924  0.74909523    -0.06920
C843        C  0.37741457  0.82066599  0.74262919     0.13950
C844        C  0.34826978  0.79601860  0.74211829    -0.20400
C845        C  0.31250756  0.80779127  0.74789860    -0.06920
C846        C  0.30544239  0.84487968  0.75459179     0.13940
C847        C  0.26745965  0.85812075  0.76217303    -0.23750
H848        H  0.32952062  0.89819103  0.76035944     0.15230
H849        H  0.35334499  0.76731738  0.73750343     0.15260
C850        C  0.41561739  0.80671527  0.73760782    -0.23700
H851        H  0.26698539  0.88783558  0.76780615     0.05470
H852        H  0.25627194  0.84377730  0.78630175     0.08690
H853        H  0.24968710  0.85274433  0.73828463     0.08690
H854        H  0.43249507  0.81417479  0.76162281     0.08680
H855        H  0.42789343  0.81856126  0.71272487     0.08680
H856        H  0.41614120  0.77662185  0.73464687     0.05450
C857        C  0.40270431  0.16682844  0.97669308    -0.20350
C858        C  0.43328407  0.18441022  0.96219616    -0.06920
C859        C  0.46669290  0.16567805  0.96071839     0.13950
C860        C  0.46788789  0.12885912  0.97116948    -0.20400
C861        C  0.43630217  0.11001484  0.98226742    -0.06920
C862        C  0.40353281  0.13002490  0.98660954     0.13940
C863        C  0.36890915  0.11327940  0.00109679    -0.23750
H864        H  0.37724415  0.18160259  0.97812343     0.15230
H865        H  0.49343707  0.11443304  0.96925798     0.15260
C866        C  0.50060797  0.18381680  0.94646882    -0.23700
H867        H  0.34706725  0.13381550  0.00455224     0.05470
H868        H  0.37404889  0.10093509  0.02819632     0.08690
H869        H  0.35842373  0.09243803  0.98179834     0.08690
H870        H  0.50789240  0.20730769  0.96410456     0.08680
H871        H  0.49600780  0.19345463  0.91819683     0.08680
H872        H  0.52411597  0.16489217  0.94622528     0.05450
C873        C  0.37812889  0.25412708  0.82861952    -0.20350
C874        C  0.36648577  0.24789838  0.86431403    -0.06920
C875        C  0.32918485  0.24192991  0.87151127     0.13950
C876        C  0.30433996  0.24183787  0.84246841    -0.20400
C877        C  0.31607115  0.24755050  0.80662489    -0.06920
C878        C  0.35335430  0.25403552  0.79962107     0.13940
C879        C  0.36706609  0.26167717  0.76181147    -0.23750
H880        H  0.40677119  0.25910401  0.82350617     0.15230
H881        H  0.27559991  0.23767648  0.84770284     0.15260
C882        C  0.31543440  0.23700444  0.90983708    -0.23700
H883        H  0.39646125  0.26884107  0.76177076     0.05470
H884        H  0.35184496  0.28473032  0.74966272     0.08690
H885        H  0.36363124  0.23701270  0.74486251     0.08690
H886        H  0.32315660  0.26100285  0.92663276     0.08680
H887        H  0.32728275  0.21210601  0.92202552     0.08680
H888        H  0.28534231  0.23416774  0.91059775     0.05450
C889        C  0.46446078  0.87687943  0.05400479    -0.20350
C890        C  0.44554802  0.88911460  0.02321547    -0.06920
C891        C  0.42598638  0.86377210  0.00159727     0.13950
C892        C  0.42294699  0.82748268  0.01327037    -0.20400
C893        C  0.43886943  0.81620381  0.04601798    -0.06920
C894        C  0.46096207  0.84075592  0.06594336     0.13940
C895        C  0.47961593  0.82916153  0.10059634    -0.23750
H896        H  0.48008618  0.89614555  0.07006411     0.15230
H897        H  0.40622909  0.80842636  0.99801177     0.15260
C898        C  0.40823546  0.87490307  0.96631007    -0.23700
H899        H  0.49626485  0.85154063  0.11248560     0.05470
H900        H  0.49786499  0.80583841  0.09484804     0.08690
H901        H  0.45912593  0.82085761  0.12116543     0.08690
H902        H  0.42886076  0.88735561  0.94804515     0.08680
H903        H  0.38619717  0.89476250  0.97152235     0.08680
H904        H  0.39600182  0.85120250  0.95191268     0.05450
C905        C  0.32295196  0.75624351  0.12484938    -0.20350
C906        C  0.35943957  0.75539017  0.13599334    -0.06920
C907        C  0.36830251  0.75428321  0.17329431     0.13950
C908        C  0.34020223  0.75309254  0.19884226    -0.20400
C909        C  0.30363490  0.75293348  0.18778612    -0.06920
C910        C  0.29474882  0.75510007  0.15046464     0.13940
C911        C  0.25580663  0.75706282  0.13774212    -0.23750
H912        H  0.31661137  0.75725295  0.09602118     0.15230
H913        H  0.34671350  0.75194872  0.22763634     0.15260
C914        C  0.40731222  0.75457164  0.18604768    -0.23700
H915        H  0.25397853  0.76021275  0.10771668     0.05470
H916        H  0.24222828  0.78079012  0.15055692     0.08690
H917        H  0.24100810  0.73179941  0.14518547     0.08690
H918        H  0.42123342  0.77943007  0.17587894     0.08680
H919        H  0.42164754  0.73016078  0.17562846     0.08680
H920        H  0.40929485  0.75443698  0.21623575     0.05450
C921        C  0.59993580  0.01509328  0.87076774    -0.20350
C922        C  0.57125421  0.02680430  0.89316793    -0.06920
C923        C  0.54367332  0.04902923  0.87771474     0.13950
C924        C  0.54640739  0.05991370  0.84107025    -0.20400
C925        C  0.57603469  0.04959300  0.81953236    -0.06920
C926        C  0.60273728  0.02636010  0.83431797     0.13940
C927        C  0.63476608  0.01427395  0.81182540    -0.23750
H928        H  0.62089986  0.99779597  0.88212367     0.15230
H929        H  0.52641419  0.07833931  0.82971624     0.15260
C930        C  0.51264816  0.06363124  0.90005768    -0.23700
H931        H  0.65283039  0.99564479  0.82725741     0.05470
H932        H  0.65119023  0.03822623  0.80338663     0.08690
H933        H  0.62490824  0.99968728  0.78717663     0.08690
H934        H  0.52355161  0.07889496  0.92380668     0.08680
H935        H  0.49516900  0.04093490  0.90942263     0.08680
H936        H  0.49516400  0.08243318  0.88416589     0.05450
C937        C  0.55298524  0.95435974  0.17113873    -0.20350
C938        C  0.58746860  0.95196753  0.18708508    -0.06920
C939        C  0.61810325  0.96429270  0.16714514     0.13950
C940        C  0.61372402  0.97572329  0.13094581    -0.20400
C941        C  0.57938144  0.97633862  0.11393010    -0.06920
C942        C  0.54845675  0.96640233  0.13508112     0.13940
C943        C  0.51046298  0.96813352  0.12029215    -0.23750
H944        H  0.52953671  0.94508661  0.18647086     0.15230
H945        H  0.63768981  0.98407297  0.11591217     0.15260
C946        C  0.65589937  0.96591879  0.18320188    -0.23700
H947        H  0.48973296  0.96010521  0.14077040     0.05470
H948        H  0.50744729  0.94974352  0.09650255     0.08690
H949        H  0.50514771  0.99659185  0.11243354     0.08690
H950        H  0.67389551  0.94666937  0.16848080     0.08680
H951        H  0.65651626  0.95935953  0.21264070     0.08680
H952        H  0.66700517  0.99391342  0.18024349     0.05450
C953        C  0.68380069  0.86253099  0.24951039    -0.20350
C954        C  0.64734837  0.85203080  0.25397838    -0.06920
C955        C  0.63821068  0.81486497  0.25736876     0.13950
C956        C  0.66603850  0.78892673  0.25653373    -0.20400
C957        C  0.70251582  0.79949125  0.25246014    -0.06920
C958        C  0.71160827  0.83662528  0.24872523     0.13940
C959        C  0.75035691  0.84883645  0.24288826    -0.23750
H960        H  0.69042466  0.89116474  0.24650902     0.15230
H961        H  0.65940278  0.76025478  0.25907612     0.15260
C962        C  0.59921602  0.80252221  0.26076571    -0.23700
H963        H  0.75229899  0.87877649  0.23910190     0.05470
H964        H  0.76152175  0.83549496  0.21818347     0.08690
H965        H  0.76730271  0.84155978  0.26679427     0.08690
H966        H  0.58333031  0.81216041  0.23693013     0.08680
H967        H  0.58710643  0.81362720  0.28608063     0.08680
H968        H  0.59697393  0.77237788  0.26185724     0.05450
C969        C  0.60770595  0.83390499  0.96932824    -0.20350
C970        C  0.57583213  0.81812408  0.95524469    -0.06920
C971        C  0.54299467  0.83785598  0.95697596     0.13950
C972        C  0.54354646  0.87383315  0.97027432    -0.20400
C973        C  0.57630674  0.89113414  0.98067115    -0.06920
C974        C  0.60865147  0.87005312  0.98161454     0.13940
C975        C  0.64464749  0.88503137  0.99480561    -0.23750
H976        H  0.63272156  0.81835064  0.96853094     0.15230
H977        H  0.51834803  0.88894953  0.97108187     0.15260
C978        C  0.50777678  0.82193341  0.94305919    -0.23700
H979        H  0.66605858  0.86377896  0.99556919     0.05470
H980        H  0.64170801  0.89591216  0.02287359     0.08690
H981        H  0.65441702  0.90669056  0.97616119     0.08690
H982        H  0.50021279  0.79773229  0.95944563     0.08680
H983        H  0.51072643  0.81394384  0.91404431     0.08680
H984        H  0.48510591  0.84173540  0.94497753     0.05450
C985        C  0.67754512  0.75931995  0.86858091    -0.20350
C986        C  0.64154134  0.75491788  0.85647704    -0.06920
C987        C  0.63417368  0.75124186  0.81894948     0.13950
C988        C  0.66320428  0.75163091  0.79429244    -0.20400
C989        C  0.69925792  0.75530324  0.80642940    -0.06920
C990        C  0.70662096  0.75943419  0.84391740     0.13940
C991        C  0.74489259  0.76473527  0.85777477    -0.23750
H992        H  0.68285930  0.76237614  0.89748369     0.15230
H993        H  0.65785614  0.74871095  0.76537760     0.15260
C994        C  0.59577419  0.74765071  0.80488817    -0.23700
H995        H  0.74554527  0.76878318  0.88775385     0.05470
H996        H  0.75721692  0.78910229  0.84478780     0.08690
H997        H  0.76159475  0.74048668  0.85134274     0.08690
H998        H  0.57956311  0.77153739  0.81368204     0.08680
H999        H  0.58303455  0.72242652  0.81558071     0.08680
H1000       H  0.59493482  0.74627092  0.77467787     0.05450
C1001       C  0.60418154  0.17141035  0.03134956    -0.20350
C1002       C  0.57469975  0.18528578  0.05100924    -0.06920
C1003       C  0.54331873  0.16357510  0.05568827     0.13950
C1004       C  0.54331672  0.12745153  0.04290773    -0.20400
C1005       C  0.57419357  0.11234081  0.02600448    -0.06920
C1006       C  0.60447553  0.13536312  0.01873119     0.13940
C1007       C  0.63751524  0.12253829  0.99810221    -0.23750
H1008       H  0.62804272  0.18845974  0.02760519     0.15230
H1009       H  0.51964970  0.11046392  0.04780043     0.15260
C1010       C  0.51063085  0.17780315  0.07578663    -0.23700
H1011       H  0.65688079  0.14517444  0.99265736     0.05470
H1012       H  0.62910085  0.11096296  0.97140981     0.08690
H1013       H  0.65245461  0.10187710  0.01420190     0.08690
H1014       H  0.49947127  0.20177712  0.06126524     0.08680
H1015       H  0.51851351  0.18586999  0.10388125     0.08680
H1016       H  0.48869757  0.15699105  0.07765926     0.05450
C1017       C  0.68035563  0.24446797  0.13501131    -0.20350
C1018       C  0.64455124  0.24997457  0.14686729    -0.06920
C1019       C  0.63737900  0.25447781  0.18434812     0.13950
C1020       C  0.66645504  0.25409023  0.20912755    -0.20400
C1021       C  0.70238189  0.24935057  0.19721770    -0.06920
C1022       C  0.70945070  0.24407379  0.15976057     0.13940
C1023       C  0.74734806  0.23681916  0.14593558    -0.23750
H1024       H  0.68549967  0.24056498  0.10620369     0.15230
H1025       H  0.66121569  0.25763299  0.23796082     0.15260
C1026       C  0.59908864  0.25870287  0.19830162    -0.23700
H1027       H  0.74749544  0.23135607  0.11617390     0.05470
H1028       H  0.75880117  0.21265443  0.15992936     0.08690
H1029       H  0.76517624  0.26072024  0.15097806     0.08690
H1030       H  0.58233128  0.23497072  0.18968385     0.08680
H1031       H  0.58688890  0.28401418  0.18741084     0.08680
H1032       H  0.59834039  0.26034240  0.22849732     0.05450
C1033       C  0.50218363  0.36312310  0.94020700    -0.20350
C1034       C  0.47809377  0.39262065  0.94033067    -0.06920
C1035       C  0.44032952  0.38607680  0.94201355     0.13950
C1036       C  0.42750715  0.35011165  0.94307309    -0.20400
C1037       C  0.45139603  0.32033235  0.94064306    -0.06920
C1038       C  0.48936612  0.32698300  0.93988602     0.13940
C1039       C  0.51646201  0.29644696  0.93668738    -0.23750
H1040       H  0.53106027  0.36818297  0.93918871     0.15230
H1041       H  0.39840766  0.34514185  0.94350292     0.15260
C1042       C  0.41343815  0.41699163  0.94048602    -0.23700
H1043       H  0.54472967  0.30688626  0.93388179     0.05470
H1044       H  0.51022157  0.27954568  0.91234613     0.08690
H1045       H  0.51567400  0.27930846  0.96147915     0.08690
H1046       H  0.41662649  0.43183221  0.91437333     0.08680
H1047       H  0.41821188  0.43631226  0.96322908     0.08680
H1048       H  0.38489031  0.40711818  0.94224702     0.05450
C1049       C  0.56447308  0.62221319  0.95027436    -0.20350
C1050       C  0.53371676  0.60975496  0.93127904    -0.06920
C1051       C  0.51186293  0.63502326  0.91227220     0.13950
C1052       C  0.52229786  0.67193034  0.91146214    -0.20400
C1053       C  0.55391111  0.68397176  0.92933458    -0.06920
C1054       C  0.57492877  0.65896066  0.94939336     0.13940
C1055       C  0.60922443  0.67095522  0.96860833    -0.23750
H1056       H  0.58134500  0.60279495  0.96439446     0.15230
H1057       H  0.50664373  0.69118312  0.89557125     0.15260
C1058       C  0.47756783  0.62318177  0.89300231    -0.23700
H1059       H  0.62298586  0.64792448  0.98221605     0.05470
H1060       H  0.60255349  0.69177745  0.98948466     0.08690
H1061       H  0.62873645  0.68269890  0.94877308     0.08690
H1062       H  0.45885090  0.60989422  0.91267872     0.08680
H1063       H  0.48419988  0.60373366  0.87085944     0.08680
H1064       H  0.46312178  0.64662823  0.88063938     0.05450
C1065       C  0.34602463  0.55488823  0.95519571    -0.20350
C1066       C  0.32603105  0.54331309  0.92482817    -0.06920
C1067       C  0.34226824  0.51994847  0.89916712     0.13950
C1068       C  0.37890586  0.51011267  0.90357085    -0.20400
C1069       C  0.39983036  0.52342097  0.93290211    -0.06920
C1070       C  0.38276908  0.54551553  0.95949493     0.13940
C1071       C  0.40334535  0.56138862  0.99122313    -0.23750
H1072       H  0.33334805  0.57325846  0.97449547     0.15230
H1073       H  0.39150270  0.49264752  0.88343814     0.15260
C1074       C  0.32104091  0.50591526  0.86691827    -0.23700
H1075       H  0.38579306  0.57942643  0.00768176     0.05470
H1076       H  0.42680977  0.57777647  0.98140779     0.08690
H1077       H  0.41292949  0.53934413  0.00933803     0.08690
H1078       H  0.31212726  0.52892785  0.84956996     0.08680
H1079       H  0.29673298  0.49072049  0.87656786     0.08680
H1080       H  0.33757234  0.48727924  0.84985355     0.05450
C1081       C  0.22841418  0.65360778  0.84576617    -0.20350
C1082       C  0.26148370  0.64553512  0.86342164    -0.06920
C1083       C  0.29266322  0.66645321  0.85436320     0.13950
C1084       C  0.29093176  0.69055723  0.82488494    -0.20400
C1085       C  0.25765661  0.69925085  0.80788048    -0.06920
C1086       C  0.22552920  0.68215928  0.82078637     0.13940
C1087       C  0.18756166  0.69449724  0.81120783    -0.23750
H1088       H  0.20395185  0.63842778  0.85222921     0.15230
H1089       H  0.31593124  0.70352683  0.81613800     0.15260
C1090       C  0.32748944  0.66622970  0.87622053    -0.23700
H1091       H  0.17144143  0.69777289  0.83656037     0.05470
H1092       H  0.17399829  0.67376955  0.79375535     0.08690
H1093       H  0.18699626  0.72139798  0.79768865     0.08690
H1094       H  0.34960504  0.65361347  0.86002803     0.08680
H1095       H  0.32471768  0.65206825  0.90266687     0.08680
H1096       H  0.33546148  0.69467072  0.88292892     0.05450
C1097       C  0.66232081  0.42361615  0.92986337    -0.20350
C1098       C  0.69135200  0.44858208  0.93307834    -0.06920
C1099       C  0.68310261  0.48566927  0.94044394     0.13950
C1100       C  0.64630239  0.49649946  0.94271256    -0.20400
C1101       C  0.61796087  0.47172879  0.93572299    -0.06920
C1102       C  0.62621063  0.43508952  0.92862112     0.13940
C1103       C  0.59700324  0.40827181  0.91806525    -0.23750
H1104       H  0.66804742  0.39503621  0.92531539     0.15230
H1105       H  0.63962480  0.52466813  0.94837133     0.15260
C1106       C  0.71229620  0.51430902  0.94432037    -0.23700
H1107       H  0.60769999  0.38020016  0.91494775     0.05470
H1108       H  0.58447937  0.41652673  0.89183296     0.08690
H1109       H  0.57583729  0.40809154  0.93920138     0.08690
H1110       H  0.73080897  0.51358226  0.92047817     0.08680
H1111       H  0.72781913  0.50995425  0.96981992     0.08680
H1112       H  0.70054574  0.54207759  0.94598203     0.05450
C1113       C  0.75925872  0.37532162  0.81815408    -0.20350
C1114       C  0.76119490  0.36492456  0.85473940    -0.06920
C1115       C  0.76046904  0.32772225  0.86412966     0.13950
C1116       C  0.75846872  0.30156490  0.83643128    -0.20400
C1117       C  0.75662395  0.31179779  0.79966470    -0.06920
C1118       C  0.75651757  0.34923516  0.79038798     0.13940
C1119       C  0.75206215  0.36283078  0.75191788    -0.23750
H1120       H  0.75909630  0.40402950  0.81129689     0.15230
H1121       H  0.75837781  0.27290809  0.84346480     0.15260
C1122       C  0.76095736  0.31567482  0.90335438    -0.23700
H1123       H  0.72846433  0.38157912  0.75060010     0.05470
H1124       H  0.74684893  0.34084042  0.73191594     0.08690
H1125       H  0.77694355  0.37790715  0.74363454     0.08690
H1126       H  0.73736968  0.32753565  0.91797592     0.08680
H1127       H  0.78653497  0.32483659  0.91668426     0.08680
H1128       H  0.75929616  0.28557927  0.90581217     0.05450
C1129       C  0.14642632  0.56117037  0.99348893    -0.20350
C1130       C  0.11858333  0.56162245  0.96725421    -0.06920
C1131       C  0.12780030  0.56227236  0.92999641     0.13950
C1132       C  0.16440707  0.56398622  0.92003400    -0.20400
C1133       C  0.19226205  0.56593982  0.94621382    -0.06920
C1134       C  0.18329584  0.56358001  0.98348175     0.13940
C1135       C  0.21210962  0.56540532  0.01266028    -0.23750
H1136       H  0.13936807  0.56005125  0.02191006     0.15230
H1137       H  0.17126741  0.56566356  0.89134883     0.15260
C1138       C  0.09990247  0.56298376  0.89994462    -0.23700
H1139       H  0.20002043  0.56486631  0.04036283     0.05470
H1140       H  0.22809124  0.59096407  0.00991616     0.08690
H1141       H  0.23054901  0.54169618  0.01031219     0.08690
H1142       H  0.07170658  0.55981760  0.91004040     0.08680
H1143       H  0.10509013  0.54058594  0.88034567     0.08680
H1144       H  0.10226457  0.58919708  0.88516532     0.05450
C1145       C  0.08712792  0.55110651  0.15241703    -0.20350
C1146       C  0.06216414  0.55918029  0.18028495    -0.06920
C1147       C  0.02526397  0.56494374  0.17093428     0.13950
C1148       C  0.01483090  0.56387231  0.13401333    -0.20400
C1149       C  0.04042540  0.55856823  0.10621752    -0.06920
C1150       C  0.07695006  0.55198963  0.11562547     0.13940
C1151       C  0.10582598  0.54941966  0.08682560    -0.23750
H1152       H  0.11551224  0.54709161  0.15939231     0.15230
H1153       H  0.98682774  0.56841061  0.12691746     0.15260
C1154       C  0.99719437  0.57430808  0.19925825    -0.23700
H1155       H  0.13307114  0.54366131  0.09858536     0.05470
H1156       H  0.10723972  0.57587993  0.07235862     0.08690
H1157       H  0.09913888  0.52762502  0.06696580     0.08690
H1158       H  0.00594419  0.59881114  0.21476906     0.08680
H1159       H  0.99339726  0.55110208  0.21814170     0.08680
H1160       H  0.97030941  0.58019412  0.18674483     0.05450
C1161       C  0.18633519  0.62473172  0.25540106    -0.20350
C1162       C  0.14970113  0.63414226  0.25073082    -0.06920
C1163       C  0.13968489  0.67106347  0.24798819     0.13950
C1164       C  0.16682583  0.69786816  0.24906448    -0.20400
C1165       C  0.20359667  0.68849881  0.25268582    -0.06920
C1166       C  0.21356788  0.65159235  0.25631025     0.13940
C1167       C  0.25262084  0.64061586  0.26199805    -0.23750
H1168       H  0.19357242  0.59628176  0.25813008     0.15230
H1169       H  0.15944079  0.72630340  0.24647126     0.15260
C1170       C  0.10039687  0.68218155  0.24443901    -0.23700
H1171       H  0.25525925  0.61075508  0.26585231     0.05470
H1172       H  0.26365274  0.65436590  0.28663005     0.08690
H1173       H  0.26924508  0.64831811  0.23803835     0.08690
H1174       H  0.08469967  0.67183768  0.26809502     0.08680
H1175       H  0.08863027  0.67084015  0.21896239     0.08680
H1176       H  0.09740631  0.71224755  0.24356609     0.05450
C1177       C  0.97970444  0.58934142  0.82693207    -0.20350
C1178       C  0.94842009  0.56893657  0.81892883    -0.06920
C1179       C  0.93166654  0.54838605  0.84665250     0.13950
C1180       C  0.94711416  0.54812127  0.88162421    -0.20400
C1181       C  0.97835797  0.56870314  0.88995684    -0.06920
C1182       C  0.99464724  0.59001360  0.86217793     0.13940
C1183       C  0.02733132  0.61412589  0.86820819    -0.23750
H1184       H  0.99168679  0.60614509  0.80581998     0.15230
H1185       H  0.93365062  0.53318504  0.90314209     0.15260
C1186       C  0.89680729  0.52777675  0.83959636    -0.23700
H1187       H  0.01995429  0.64278389  0.86222133     0.05470
H1188       H  0.04938100  0.60581150  0.84935907     0.08690
H1189       H  0.03811746  0.61315218  0.89626908     0.08690
H1190       H  0.90130719  0.50701088  0.81808157     0.08680
H1191       H  0.87522387  0.54680514  0.83057259     0.08680
H1192       H  0.88680382  0.51384118  0.86445302     0.05450
C1193       C  0.82133871  0.62909276  0.74189899    -0.20350
C1194       C  0.85768023  0.63882984  0.74863090    -0.06920
C1195       C  0.86717484  0.67575390  0.75381355     0.13950
C1196       C  0.83978961  0.70209509  0.75307313    -0.20400
C1197       C  0.80333008  0.69230607  0.74730890    -0.06920
C1198       C  0.79390669  0.65551824  0.74122385     0.13940
C1199       C  0.75524109  0.64429827  0.73318956    -0.23750
H1200       H  0.81445987  0.60069861  0.73744299     0.15230
H1201       H  0.84674906  0.73051476  0.75726818     0.15260
C1202       C  0.90617753  0.68751735  0.75921585    -0.23700
H1203       H  0.75298288  0.61460814  0.72780493     0.05470
H1204       H  0.74525398  0.65898652  0.70875417     0.08690
H1205       H  0.73752050  0.65078306  0.75671653     0.08690
H1206       H  0.92285888  0.67823790  0.73581559     0.08680
H1207       H  0.91721438  0.67576902  0.78472624     0.08680
H1208       H  0.90875011  0.71759565  0.76120677     0.05450
C1209       C  0.87540157  0.55613963  0.00316769    -0.20350
C1210       C  0.90338755  0.56485084  0.02787258    -0.06920
C1211       C  0.89474485  0.57239279  0.06442362     0.13950
C1212       C  0.85868394  0.57017209  0.07566921    -0.20400
C1213       C  0.83006953  0.56416401  0.05087226    -0.06920
C1214       C  0.83855716  0.55662555  0.01398775     0.13940
C1215       C  0.80938262  0.55068795  0.98571748    -0.23750
H1216       H  0.88235590  0.55013025  0.97511591     0.15230
H1217       H  0.85262683  0.57546460  0.10410243     0.15260
C1218       C  0.92256082  0.58393277  0.09231474    -0.23700
H1219       H  0.82105682  0.54863173  0.95791098     0.05470
H1220       H  0.78997830  0.57377936  0.98594787     0.08690
H1221       H  0.79473122  0.52484552  0.99106559     0.08690
H1222       H  0.91544969  0.61127582  0.10303618     0.08680
H1223       H  0.95034903  0.58567888  0.08102157     0.08680
H1224       H  0.92257289  0.56436971  0.11529905     0.05450
C1225       C  0.72562059  0.68161355  0.17393791    -0.20350
C1226       C  0.75828932  0.69167759  0.19141706    -0.06920
C1227       C  0.79130875  0.67642328  0.17869814     0.13950
C1228       C  0.79000676  0.64809434  0.15323516    -0.20400
C1229       C  0.75739961  0.63811211  0.13563630    -0.06920
C1230       C  0.72517619  0.65721950  0.14456348     0.13940
C1231       C  0.69039715  0.65449822  0.12277967    -0.23750
H1232       H  0.70009121  0.69350047  0.18249008     0.15230
H1233       H  0.81518912  0.63443568  0.14645995     0.15260
C1234       C  0.82854935  0.69041195  0.18930348    -0.23700
H1235       H  0.68107455  0.68228063  0.11548416     0.05470
H1236       H  0.66894090  0.64105836  0.13928471     0.08690
H1237       H  0.69377992  0.63975971  0.09668456     0.08690
H1238       H  0.84277428  0.66984467  0.20620476     0.08680
H1239       H  0.82772362  0.71678710  0.20390160     0.08680
H1240       H  0.84483981  0.69537346  0.16433401     0.05450
C1241       C  0.87449306  0.42516373  0.99600723    -0.20350
C1242       C  0.90242327  0.43413442  0.97160480    -0.06920
C1243       C  0.89387448  0.44379202  0.93554094     0.13950
C1244       C  0.85744125  0.44468806  0.92460095    -0.20400
C1245       C  0.82931586  0.43395983  0.94822045    -0.06920
C1246       C  0.83787135  0.42452172  0.98459028     0.13940
C1247       C  0.80893297  0.41204263  0.01077357    -0.23750
H1248       H  0.88146416  0.41787153  0.02374312     0.15230
H1249       H  0.85097959  0.45123349  0.89653907     0.15260
C1250       C  0.92344673  0.45014904  0.90785508    -0.23700
H1251       H  0.82074730  0.40399502  0.03742235     0.05470
H1252       H  0.79423531  0.38813399  0.99934679     0.08690
H1253       H  0.78941082  0.43440451  0.01589558     0.08690
H1254       H  0.94020799  0.42522509  0.90545429     0.08680
H1255       H  0.94122011  0.47298538  0.91654181     0.08680
H1256       H  0.91225516  0.45632819  0.88048553     0.05450
C1257       C  0.94286897  0.45665258  0.15936305    -0.20350
C1258       C  0.95927261  0.43184818  0.18313425    -0.06920
C1259       C  0.98800590  0.40980561  0.17062806     0.13950
C1260       C  0.99888634  0.41212433  0.13407967    -0.20400
C1261       C  0.98162664  0.43599537  0.10979622    -0.06920
C1262       C  0.95363135  0.45904711  0.12277497     0.13940
C1263       C  0.93334673  0.48447224  0.09780126    -0.23750
H1264       H  0.92029845  0.47289726  0.16908331     0.15230
H1265       H  0.02049781  0.39471133  0.12423351     0.15260
C1266       C  0.00637453  0.38310946  0.19566583    -0.23700
H1267       H  0.91058489  0.49824999  0.11203344     0.05470
H1268       H  0.92161458  0.46901761  0.07452034     0.08690
H1269       H  0.95205187  0.50587166  0.08750983     0.08690
H1270       H  0.98625976  0.36286186  0.20568729     0.08680
H1271       H  0.01834176  0.39788106  0.21925801     0.08680
H1272       H  0.02853675  0.36814940  0.18166483     0.05450
C1273       C  0.87753180  0.32483167  0.24360150    -0.20350
C1274       C  0.86716831  0.36080159  0.25088743    -0.06920
C1275       C  0.83017022  0.36902541  0.25700310     0.13950
C1276       C  0.80443557  0.34076515  0.25655065    -0.20400
C1277       C  0.81491644  0.30467393  0.25010395    -0.06920
C1278       C  0.85179446  0.29657272  0.24310422     0.13940
C1279       C  0.86387733  0.25846105  0.23399530    -0.23750
H1280       H  0.90592371  0.31890926  0.23833504     0.15230
H1281       H  0.77598914  0.34675811  0.26141761     0.15260
C1282       C  0.81765251  0.40759566  0.26297355    -0.23700
H1283       H  0.89337443  0.25744585  0.22754153     0.05470
H1284       H  0.84859028  0.24829634  0.20989710     0.08690
H1285       H  0.85896950  0.24006535  0.25739212     0.08690
H1286       H  0.82604256  0.42480637  0.23959632     0.08680
H1287       H  0.82969583  0.41868640  0.28839667     0.08680
H1288       H  0.78758807  0.40921231  0.26551634     0.05450
C1289       C  0.01862704  0.41674177  0.86656913    -0.20350
C1290       C  0.03976851  0.43453084  0.89311342    -0.06920
C1291       C  0.07279539  0.45142813  0.88285755     0.13950
C1292       C  0.08400147  0.45003739  0.84640749    -0.20400
C1293       C  0.06328223  0.43168224  0.82000852    -0.06920
C1294       C  0.03002617  0.41518020  0.83003182     0.13940
C1295       C  0.00742308  0.39474395  0.80246232    -0.23750
H1296       H  0.99355042  0.40342734  0.87455673     0.15230
H1297       H  0.11003862  0.46168603  0.83874756     0.15260
C1298       C  0.09764743  0.46839708  0.91082409    -0.23700
H1299       H  0.98234383  0.38321656  0.81481786     0.05470
H1300       H  0.02346384  0.37196299  0.79084578     0.08690
H1301       H  0.99923923  0.41342035  0.78019087     0.08690
H1302       H  0.10479764  0.44780375  0.93158419     0.08680
H1303       H  0.08384357  0.49149147  0.92430458     0.08680
H1304       H  0.12332675  0.47860977  0.89856211     0.05450
C1305       C  0.17508091  0.29940385  0.75157466    -0.20350
C1306       C  0.21148328  0.31064005  0.74864185    -0.06920
C1307       C  0.21997519  0.34807548  0.74626515     0.13950
C1308       C  0.19166307  0.37353340  0.74735967    -0.20400
C1309       C  0.15536223  0.36224034  0.75087957    -0.06920
C1310       C  0.14683484  0.32482949  0.75273830     0.13940
C1311       C  0.10797625  0.31175784  0.75511289    -0.23750
H1312       H  0.16882030  0.27057117  0.75306047     0.15230
H1313       H  0.19777736  0.40236669  0.74547142     0.15260
C1314       C  0.25859609  0.36110968  0.74148123    -0.23700
H1315       H  0.10619393  0.28156481  0.75528727     0.05470
H1316       H  0.09232291  0.32185406  0.73130988     0.08690
H1317       H  0.09527528  0.32196759  0.78052591     0.08690
H1318       H  0.27045084  0.34863302  0.71664956     0.08680
H1319       H  0.27524756  0.35353315  0.76549132     0.08680
H1320       H  0.26005390  0.39116812  0.73851971     0.05450
C1321       C  0.14544615  0.43039318  0.00650388    -0.20350
C1322       C  0.11755741  0.43727051  0.03153949    -0.06920
C1323       C  0.12626714  0.44565541  0.06799067     0.13950
C1324       C  0.16288392  0.44680551  0.07867149    -0.20400
C1325       C  0.19094883  0.43828306  0.05412056    -0.06920
C1326       C  0.18215911  0.43073576  0.01735473     0.13940
C1327       C  0.21108916  0.42117107  0.98998765    -0.23750
H1328       H  0.13845525  0.42369032  0.97865786     0.15230
H1329       H  0.16959531  0.45182231  0.10701446     0.15260
C1330       C  0.09686335  0.45040549  0.09623687    -0.23700
H1331       H  0.19918960  0.41461710  0.96291575     0.05470
H1332       H  0.22658864  0.39706894  0.99942648     0.08690
H1333       H  0.22992802  0.44454969  0.98638872     0.08690
H1334       H  0.08094934  0.42476903  0.09860091     0.08680
H1335       H  0.07805555  0.47254275  0.08836252     0.08680
H1336       H  0.10836539  0.45705600  0.12345388     0.05450
C1337       C  0.26019180  0.32624773  0.12794348    -0.20350
C1338       C  0.26149963  0.36256769  0.13945507    -0.06920
C1339       C  0.26208762  0.37099500  0.17687833     0.13950
C1340       C  0.26198957  0.34259923  0.20223779    -0.20400
C1341       C  0.26092453  0.30608951  0.19089321    -0.06920
C1342       C  0.25970905  0.29773899  0.15325073     0.13940
C1343       C  0.25620364  0.25912872  0.13958964    -0.23750
H1344       H  0.25918303  0.32028697  0.09902641     0.15230
H1345       H  0.26251806  0.34886245  0.23109928     0.15260
C1346       C  0.26201779  0.40990624  0.18993317    -0.23700
H1347       H  0.25278350  0.25810814  0.10954144     0.05470
H1348       H  0.23205444  0.24590344  0.15207477     0.08690
H1349       H  0.28094183  0.24335924  0.14631932     0.08690
H1350       H  0.23738617  0.42394764  0.17956124     0.08680
H1351       H  0.28664383  0.42425649  0.17985440     0.08680
H1352       H  0.26189956  0.41165603  0.22013304     0.05450
C1353       C  0.37449840  0.49989695  0.07376288    -0.20350
C1354       C  0.40184287  0.47539328  0.06359735    -0.06920
C1355       C  0.39245485  0.43970146  0.05282269     0.13950
C1356       C  0.35582606  0.42902263  0.05323107    -0.20400
C1357       C  0.32847409  0.45273579  0.06539431    -0.06920
C1358       C  0.33777919  0.48892350  0.07492833     0.13940
C1359       C  0.30945892  0.51534541  0.08811809    -0.23750
H1360       H  0.38204290  0.52736229  0.08167360     0.15230
H1361       H  0.34869497  0.40113284  0.04649774     0.15260
C1362       C  0.42130147  0.41197317  0.04380429    -0.23700
H1363       H  0.32169208  0.54203663  0.09560693     0.05470
H1364       H  0.29556245  0.50421799  0.11253040     0.08690
H1365       H  0.28912474  0.52020578  0.06630899     0.08690
H1366       H  0.43906887  0.40772128  0.06790691     0.08680
H1367       H  0.43835780  0.42155832  0.02088786     0.08680
H1368       H  0.40924491  0.38529171  0.03600279     0.05450
C1369       C  0.43981745  0.61360338  0.06172142    -0.20350
C1370       C  0.47768694  0.61016439  0.06403062    -0.06920
C1371       C  0.49937955  0.64192662  0.06512181     0.13950
C1372       C  0.48279037  0.67625211  0.06612843    -0.20400
C1373       C  0.44485002  0.67972711  0.06512157    -0.06920
C1374       C  0.42306114  0.64792515  0.06119951     0.13940
C1375       C  0.38244634  0.64984083  0.05487446    -0.23750
H1376       H  0.42325325  0.58917657  0.06064250     0.15230
H1377       H  0.49953678  0.70048125  0.06876034     0.15260
C1378       C  0.53994431  0.63980025  0.06513610    -0.23700
H1379       H  0.37046280  0.62254037  0.04988799     0.05470
H1380       H  0.37677623  0.66703504  0.03070419     0.08690
H1381       H  0.36795421  0.66095791  0.07873301     0.08690
H1382       H  0.54855040  0.62660158  0.03939539     0.08680
H1383       H  0.54901056  0.62403497  0.08922872     0.08680
H1384       H  0.55293339  0.66713658  0.06638622     0.05450
C1385       C  0.64472565  0.49722351  0.08411822    -0.20350
C1386       C  0.62079692  0.52247505  0.06826022    -0.06920
C1387       C  0.63513085  0.55429072  0.05239662     0.13950
C1388       C  0.67249741  0.56085531  0.05325701    -0.20400
C1389       C  0.69608947  0.53725834  0.07139328    -0.06920
C1390       C  0.68245728  0.50447713  0.08604078     0.13940
C1391       C  0.70756452  0.47794992  0.10432671    -0.23750
H1392       H  0.63381507  0.47238746  0.09574293     0.15230
H1393       H  0.68306623  0.58637361  0.04272722     0.15260
C1394       C  0.61061698  0.58351510  0.03868139    -0.23700
H1395       H  0.69264561  0.45354021  0.11418235     0.05470
H1396       H  0.72108222  0.49117451  0.12798759     0.08690
H1397       H  0.72861778  0.46889329  0.08467019     0.08690
H1398       H  0.59360944  0.59199534  0.06183321     0.08680
H1399       H  0.59338248  0.57295165  0.01627717     0.08680
H1400       H  0.62594864  0.60763934  0.02900980     0.05450
C1401       C  0.56847925  0.34039249  0.04868234    -0.20350
C1402       C  0.55312583  0.31892232  0.07614178    -0.06920
C1403       C  0.52682883  0.33406448  0.09958216     0.13950
C1404       C  0.51739486  0.37088260  0.09585715    -0.20400
C1405       C  0.53388312  0.39299491  0.06937791    -0.06920
C1406       C  0.55943894  0.37732272  0.04514072     0.13940
C1407       C  0.57895029  0.39974846  0.01695866    -0.23750
H1408       H  0.58918737  0.32868174  0.03128379     0.15230
H1409       H  0.49753589  0.38263876  0.11417612     0.15260
C1410       C  0.50930711  0.31146292  0.12895747    -0.23700
H1411       H  0.59903049  0.38341868  0.00141448     0.05470
H1412       H  0.59373542  0.42261819  0.03027265     0.08690
H1413       H  0.55885649  0.41063682  0.99737015     0.08690
H1414       H  0.53025913  0.30174896  0.14840644     0.08680
H1415       H  0.49537941  0.28761587  0.11648216     0.08680
H1416       H  0.48884625  0.32727636  0.14452790     0.05450
C1417       C  0.94141302  0.36283030  0.50354788    -0.20350
C1418       C  0.94436996  0.39119122  0.52902835    -0.06920
C1419       C  0.94636330  0.38308136  0.56645095     0.13950
C1420       C  0.94517251  0.34669574  0.57772869    -0.20400
C1421       C  0.94034625  0.31815203  0.55258698    -0.06920
C1422       C  0.93885944  0.32628740  0.51495180     0.13940
C1423       C  0.93232007  0.29685770  0.48706911    -0.23750
H1424       H  0.93981574  0.36941350  0.47482754     0.15230
H1425       H  0.94576841  0.34054992  0.60659578     0.15260
C1426       C  0.94763068  0.41301232  0.59458667    -0.23700
H1427       H  0.93051965  0.30812989  0.45908402     0.05470
H1428       H  0.90636661  0.28250342  0.49303197     0.08690
H1429       H  0.95497019  0.27702409  0.48762542     0.08690
H1430       H  0.92296397  0.43020275  0.59212992     0.08680
H1431       H  0.97202131  0.43028874  0.59028046     0.08680
H1432       H  0.94853129  0.40203333  0.62271773     0.05450
C1433       C  0.92891412  0.63433505  0.49934930    -0.20350
C1434       C  0.94466127  0.60862667  0.47591017    -0.06920
C1435       C  0.95925954  0.62007401  0.44229284     0.13950
C1436       C  0.95729976  0.65693875  0.43263944    -0.20400
C1437       C  0.93968316  0.68240823  0.45504338    -0.06920
C1438       C  0.92600992  0.67114635  0.48915250     0.13940
C1439       C  0.90661962  0.69746407  0.51379530    -0.23750
H1440       H  0.91782147  0.62533527  0.52515518     0.15230
H1441       H  0.96683201  0.66545778  0.40604293     0.15260
C1442       C  0.97365382  0.59293215  0.41506685    -0.23700
H1443       H  0.89701055  0.68405645  0.53912049     0.05470
H1444       H  0.88259942  0.70895598  0.49954306     0.08690
H1445       H  0.92539550  0.71990529  0.52161644     0.08690
H1446       H  0.95149740  0.57396958  0.40683340     0.08680
H1447       H  0.99592570  0.57684525  0.42723696     0.08680
H1448       H  0.98427280  0.60643538  0.39019385     0.05450
C1449       C  0.92023255  0.49105726  0.36816414    -0.20350
C1450       C  0.94611171  0.47496966  0.39122103    -0.06920
C1451       C  0.97044097  0.44888785  0.37659311     0.13950
C1452       C  0.96720948  0.43859289  0.33985468    -0.20400
C1453       C  0.94004683  0.45329038  0.31758501    -0.06920
C1454       C  0.91685618  0.48042121  0.33156147     0.13940
C1455       C  0.88790887  0.49737209  0.30802992    -0.23750
H1456       H  0.90188396  0.51133616  0.37911204     0.15230
H1457       H  0.98444144  0.41728314  0.32902019     0.15260
C1458       C  0.99769416  0.42944700  0.40014086    -0.23700
H1459       H  0.87238291  0.51849443  0.32301796     0.05470
H1460       H  0.86838442  0.47622466  0.29862414     0.08690
H1461       H  0.90076010  0.51038285  0.28397718     0.08690
H1462       H  0.98314050  0.41582073  0.42280636     0.08680
H1463       H  0.01792477  0.44903189  0.41118738     0.08680
H1464       H  0.01284121  0.40832683  0.38475064     0.05450
C1465       C  0.90957562  0.51192182  0.63058986    -0.20350
C1466       C  0.94091859  0.52278380  0.61148477    -0.06920
C1467       C  0.96822574  0.54289435  0.63031825     0.13950
C1468       C  0.96218013  0.55351092  0.66665254    -0.20400
C1469       C  0.92968475  0.54472405  0.68453999    -0.06920
C1470       C  0.90360916  0.52266700  0.66673657     0.13940
C1471       C  0.86924225  0.51072754  0.68574834    -0.23750
H1472       H  0.88903107  0.49566438  0.61685485     0.15230
H1473       H  0.98202005  0.57050079  0.68055708     0.15260
C1474       C  0.00287347  0.55506892  0.61208909    -0.23700
H1475       H  0.85251350  0.49238699  0.66834355     0.05470
H1476       H  0.85231047  0.53463822  0.69279289     0.08690
H1477       H  0.87632522  0.49579934  0.71103634     0.08690
H1478       H  0.99635773  0.57189353  0.58790390     0.08680
H1479       H  0.01894842  0.53099625  0.60383645     0.08680
H1480       H  0.02023395  0.57171076  0.63055003     0.05450
C1481       C  0.39040849  0.94454485  0.43822504    -0.20350
C1482       C  0.39585832  0.93558136  0.47469298    -0.06920
C1483       C  0.36519675  0.92826936  0.49683832     0.13950
C1484       C  0.33009034  0.92770514  0.48106002    -0.20400
C1485       C  0.32504131  0.93574802  0.44404321    -0.06920
C1486       C  0.35561848  0.94615916  0.42293744     0.13940
C1487       C  0.35272063  0.95929781  0.38414660    -0.23750
H1488       H  0.41377759  0.94968432  0.42127885     0.15230
H1489       H  0.30670107  0.92025998  0.49740123     0.15260
C1490       C  0.36914033  0.92209093  0.53700490    -0.23700
H1491       H  0.36812539  0.94078987  0.36593864     0.05470
H1492       H  0.36470504  0.98700913  0.38216468     0.08690
H1493       H  0.32427161  0.96127661  0.37434253     0.08690
H1494       H  0.37801644  0.94785629  0.54983841     0.08680
H1495       H  0.38924683  0.90029281  0.54242213     0.08680
H1496       H  0.34287470  0.91414232  0.54968739     0.05450
C1497       C  0.64204892  0.93407606  0.50007642    -0.20350
C1498       C  0.61444729  0.93232338  0.52644043    -0.06920
C1499       C  0.62377902  0.93171091  0.56360608     0.13950
C1500       C  0.66048375  0.93143383  0.57368788    -0.20400
C1501       C  0.68845889  0.93078194  0.54755630    -0.06920
C1502       C  0.67914389  0.93315616  0.51019711     0.13940
C1503       C  0.70784897  0.93332752  0.48101113    -0.23750
H1504       H  0.63452929  0.93542488  0.47155136     0.15230
H1505       H  0.66747813  0.93003701  0.60235960     0.15260
C1506       C  0.59490080  0.93027215  0.59267453    -0.23700
H1507       H  0.69559160  0.93320157  0.45333455     0.05470
H1508       H  0.72529697  0.90886241  0.48361213     0.08690
H1509       H  0.72483724  0.95823152  0.48337825     0.08690
H1510       H  0.57812606  0.90535520  0.58893223     0.08680
H1511       H  0.57719155  0.95462111  0.59073005     0.08680
H1512       H  0.60684691  0.92957286  0.62047417     0.05450
C1513       C  0.56307145  0.95046068  0.38266612    -0.20350
C1514       C  0.53083460  0.93215565  0.39199696    -0.06920
C1515       C  0.51133418  0.91304371  0.36470581     0.13950
C1516       C  0.52530191  0.91166582  0.32902919    -0.20400
C1517       C  0.55854721  0.92839253  0.32028184    -0.06920
C1518       C  0.57759047  0.94802829  0.34740395     0.13940
C1519       C  0.61414661  0.96490449  0.33958143    -0.23750
H1520       H  0.57800522  0.96510941  0.40360792     0.15230
H1521       H  0.51114626  0.89602980  0.30828797     0.15260
C1522       C  0.47585356  0.89421681  0.37305869    -0.23700
H1523       H  0.62599306  0.97761705  0.36432145     0.05470
H1524       H  0.61132636  0.98597310  0.31813167     0.08690
H1525       H  0.63349600  0.94374392  0.33024862     0.08690
H1526       H  0.45619986  0.91421793  0.38411747     0.08680
H1527       H  0.48023583  0.87225150  0.39326924     0.08680
H1528       H  0.46362956  0.88170380  0.34831588     0.05450
C1529       C  0.50307989  0.91007954  0.63521146    -0.20350
C1530       C  0.48470453  0.93406008  0.61183916    -0.06920
C1531       C  0.45771977  0.95718362  0.62639202     0.13950
C1532       C  0.44820095  0.95436538  0.66320311    -0.20400
C1533       C  0.46528711  0.92923251  0.68597700    -0.06920
C1534       C  0.49387039  0.90769903  0.67228843     0.13940
C1535       C  0.51380192  0.88157209  0.69667927    -0.23750
H1536       H  0.52402468  0.89254049  0.62429877     0.15230
H1537       H  0.42586917  0.97037719  0.67384794     0.15260
C1538       C  0.43713036  0.98316189  0.60273840    -0.23700
H1539       H  0.53576456  0.86710896  0.68186467     0.05470
H1540       H  0.49458483  0.86093045  0.70760106     0.08690
H1541       H  0.52632607  0.89677244  0.71971253     0.08690
H1542       H  0.42501382  0.96835509  0.57951005     0.08680
H1543       H  0.45592299  0.00426278  0.59218963     0.08680
H1544       H  0.41501003  0.99669267  0.61800612     0.05450
C1545       C  0.10846458  0.66612150  0.53260285    -0.20350
C1546       C  0.07737518  0.68161356  0.54809630    -0.06920
C1547       C  0.04481607  0.66117863  0.54926896     0.13950
C1548       C  0.04488705  0.62488567  0.53677357    -0.20400
C1549       C  0.07699913  0.60818639  0.52408478    -0.06920
C1550       C  0.10904328  0.62981856  0.52095866     0.13940
C1551       C  0.14451167  0.61532954  0.50628520    -0.23750
H1552       H  0.13325262  0.68221791  0.53149187     0.15230
H1553       H  0.01997888  0.60912011  0.53832913     0.15260
C1554       C  0.01056149  0.67691514  0.56518677    -0.23700
H1555       H  0.16564827  0.63693334  0.50424531     0.05470
H1556       H  0.14040268  0.60404446  0.47855107     0.08690
H1557       H  0.15544667  0.59411668  0.52474301     0.08690
H1558       H  0.00186904  0.70085372  0.54902188     0.08680
H1559       H  0.01550326  0.68539060  0.59381846     0.08680
H1560       H  0.98786569  0.65683993  0.56497566     0.05450
C1561       C  0.04597662  0.37049241  0.46425061    -0.20350
C1562       C  0.07772304  0.38697206  0.47829113    -0.06920
C1563       C  0.10952442  0.36536992  0.48202734     0.13950
C1564       C  0.10939163  0.32951857  0.46876023    -0.20400
C1565       C  0.07877693  0.31460536  0.45138301    -0.06920
C1566       C  0.04635616  0.33495643  0.44993110     0.13940
C1567       C  0.01291306  0.32018192  0.43123305    -0.23750
H1568       H  0.02113335  0.38606025  0.46278351     0.15230
H1569       H  0.13412410  0.31355360  0.47003621     0.15260
C1570       C  0.14398181  0.37947752  0.49956313    -0.23700
H1571       H  0.99016613  0.33998726  0.43177569     0.05470
H1572       H  0.00372824  0.29496927  0.44503479     0.08690
H1573       H  0.01916727  0.31393355  0.40232566     0.08690
H1574       H  0.13792508  0.39015494  0.52719752     0.08680
H1575       H  0.15633543  0.40113024  0.48251514     0.08680
H1576       H  0.16470487  0.35774786  0.50257806     0.05450
C1577       C  0.07114296  0.49929308  0.36472140    -0.20350
C1578       C  0.07250388  0.52506383  0.39291408    -0.06920
C1579       C  0.07224730  0.56241141  0.38453094     0.13950
C1580       C  0.07058951  0.57323846  0.34806094    -0.20400
C1581       C  0.07273391  0.54779668  0.31934902    -0.06920
C1582       C  0.07184389  0.51013016  0.32789076     0.13940
C1583       C  0.07342574  0.48120077  0.29883344    -0.23750
H1584       H  0.07097324  0.47060658  0.37157430     0.15230
H1585       H  0.07084799  0.60208660  0.34184581     0.15260
C1586       C  0.07673123  0.59089098  0.41388928    -0.23700
H1587       H  0.07543005  0.45351297  0.31076702     0.05470
H1588       H  0.09759148  0.48554050  0.28125273     0.08690
H1589       H  0.04824630  0.48174660  0.28218425     0.08690
H1590       H  0.10364430  0.58745026  0.42711570     0.08680
H1591       H  0.05540151  0.58801129  0.43493314     0.08680
H1592       H  0.07537677  0.61894186  0.40274176     0.05450
C1593       C  0.05279359  0.45067144  0.62529702    -0.20350
C1594       C  0.07888712  0.47500059  0.61136721    -0.06920
C1595       C  0.10521126  0.49011011  0.63530998     0.13950
C1596       C  0.10611257  0.47868787  0.67178991    -0.20400
C1597       C  0.08141487  0.45269973  0.68493813    -0.06920
C1598       C  0.05395989  0.43909809  0.66171155     0.13940
C1599       C  0.02712488  0.41100179  0.67492848    -0.23750
H1600       H  0.03257176  0.43919168  0.60712203     0.15230
H1601       H  0.12732876  0.48873898  0.68978573     0.15260
C1602       C  0.13236757  0.51827879  0.62280746    -0.23700
H1603       H  0.00785608  0.40269713  0.65312325     0.05470
H1604       H  0.01118677  0.42229577  0.69795520     0.08690
H1605       H  0.04178758  0.38631839  0.68421678     0.08690
H1606       H  0.11785970  0.54169190  0.61045695     0.08680
H1607       H  0.15127776  0.50624673  0.60263808     0.08680
H1608       H  0.14909652  0.52879578  0.64578552     0.05450
loop_ 
_geom_bond_atom_site_label_1 
_geom_bond_atom_site_label_2 
_geom_bond_distance 
_geom_bond_site_symmetry_2 
_ccdc_geom_bond_type 
O1           Cu9   2.014       .  S
O1           C11   1.278       .  A
O2           Cu9   2.018       .  S
O2           C12   1.277       .  A
O3           Cu9   1.996       .  S
O3           C13   1.275       .  A
O4           Cu9   2.001       .  S
O4           C14   1.276       .  A
O5          Cu10   2.024       .  S
O5           C14   1.279       .  A
O6          Cu10   2.025       .  S
O6           C13   1.279       .  A
O7          Cu10   2.006       .  S
O7           C12   1.274       .  A
O8          Cu10   2.006       .  S
O8           C11   1.276       .  A
Cu9         Cu10   2.362       .  S
C11        C1594   1.485       .  S
C12        C1578   1.471       .  S
C13        C1549   1.495       .  S
C14        C1562   1.494       .  S
O15         Cu23   2.017       .  S
O15          C25   1.278       .  A
O16         Cu23   2.025       .  S
O16          C26   1.279       .  A
O17         Cu23   2.029       .  S
O17          C27   1.280       .  A
O18         Cu23   2.039       .  S
O18          C28   1.280       .  A
O19         Cu24   2.017       .  S
O19          C28   1.277       .  A
O20         Cu24   2.001       .  S
O20          C27   1.273       .  A
O21         Cu24   2.007       .  S
O21          C26   1.276       .  A
O22         Cu24   2.004       .  S
O22          C25   1.276       .  A
Cu23        Cu24   2.367       .  S
C25        C1530   1.482       .  S
C26        C1514   1.482       .  S
C27        C1498   1.473       .  S
C28        C1482   1.484       .  S
O29         Cu37   2.018       .  S
O29          C39   1.278       .  A
O30         Cu37   2.020       .  S
O30          C40   1.278       .  A
O31         Cu37   2.010       .  S
O31          C41   1.279       .  A
O32         Cu37   2.016       .  S
O32          C42   1.278       .  A
O33         Cu38   2.012       .  S
O33          C42   1.275       .  A
O34         Cu38   2.015       .  S
O34          C41   1.277       .  A
O35         Cu38   2.004       .  S
O35          C40   1.274       .  A
O36         Cu38   2.007       .  S
O36          C39   1.275       .  A
Cu37        Cu38   2.367       .  S
C39        C1434   1.475       .  S
C40        C1418   1.472       .  S
C41        C1466   1.491       .  S
C42        C1450   1.485       .  S
O43         Cu51   2.002       .  S
O43          C53   1.275       .  A
O44         Cu51   2.020       .  S
O44          C54   1.277       .  A
O45         Cu51   2.003       .  S
O45          C55   1.276       .  A
O46         Cu51   1.995       .  S
O46          C56   1.274       .  A
O47         Cu52   2.019       .  S
O47          C56   1.278       .  A
O48         Cu52   2.029       .  S
O48          C55   1.279       .  A
O49         Cu52   2.031       .  S
O49          C54   1.280       .  A
O50         Cu52   2.017       .  S
O50          C53   1.279       .  A
Cu51        Cu52   2.368       .  S
C53        C1405   1.484       .  S
C54        C1370   1.482       .  S
C55        C1386   1.481       .  S
C56        C1354   1.470       .  S
C57        C1325   1.483       .  S
C57          C58   1.412       .  A
C57          C62   1.402       .  A
C58          C59   1.412       .  A
C58          H63   1.082       .  S
C59        C1357   1.483       .  S
C59          C60   1.403       .  A
C60          C61   1.392       .  A
C60          H64   1.085       .  S
C61        C1338   1.467       .  S
C61          C62   1.391       .  A
C62          H65   1.085       .  S
C66        C1293   1.478       .  S
C66          C67   1.409       .  A
C66          C71   1.401       .  A
C67          C68   1.409       .  A
C67          H72   1.083       .  S
C68        C1597   1.477       .  S
C68          C69   1.400       .  A
C69          C70   1.394       .  A
C69          H73   1.085       .  S
C70        C1309   1.470       .  S
C70          C71   1.395       .  A
C71          H74   1.085       .  S
C75        C1258   1.475       .  S
C75          C76   1.407       .  A
C75          C80   1.400       .  A
C76          C77   1.407       .  A
C76          H81   1.083       .  S
C77        C1453   1.476       .  S
C77          C78   1.402       .  A
C78          C79   1.397       .  A
C78          H82   1.084       .  S
C79        C1274   1.474       .  S
C79          C80   1.396       .  A
C80          H83   1.085       .  S
O84         Cu92   2.003   1_556  S
O84          C94   1.276       .  A
O85         Cu92   1.998   1_655  S
O85          C95   1.273       .  A
O86         Cu92   1.997       .  S
O86          C96   1.273       .  A
O87         Cu92   1.992   1_656  S
O87          C97   1.273       .  A
O88         Cu93   2.019   1_656  S
O88          C97   1.278       .  A
O89         Cu93   2.021       .  S
O89          C96   1.278       .  A
O90         Cu93   2.019   1_655  S
O90          C95   1.279       .  A
O91         Cu93   2.025   1_556  S
O91          C94   1.279       .  A
Cu92        Cu93   2.368       .  S
C94        C1290   1.478       .  S
C95        C1261   1.480       .  S
C96        C1322   1.469       .  S
C97        C1242   1.468       .  S
C98        C1213   1.490       .  S
C98          C99   1.410       .  A
C98         C103   1.406       .  A
C99         C100   1.406       .  A
C99         H104   1.080       .  S
C100       C1389   1.474       .  S
C100        C101   1.402       .  A
C101        C102   1.398       .  A
C101        H105   1.083       .  S
C102       C1229   1.492       .  S
C102        C103   1.398       .  A
C103        H106   1.084       .  S
C107       C1178   1.476       .  S
C107        C108   1.408       .  A
C107        C112   1.399       .  A
C108        C109   1.409       .  A
C108        H113   1.083       .  S
C109       C1469   1.480       .  S
C109        C110   1.402       .  A
C110        C111   1.396       .  A
C110        H114   1.085       .  S
C111       C1194   1.471       .  S
C111        C112   1.395       .  A
C112        H115   1.085       .  S
C116       C1581   1.497       .  S
C116        C117   1.406       .  A
C116        C121   1.417       .  A
C117        C118   1.390       .  A
C117        H122   1.084       .  S
C118       C1162   1.470       .  S
C118        C119   1.391       .  A
C119        C120   1.404       .  A
C119        H123   1.085       .  S
C120       C1146   1.491       .  S
C120        C121   1.416       .  A
C121        H124   1.078       .  S
O125       Cu133   2.015   1_654  S
O125        C135   1.278       .  A
O126       Cu133   2.024       .  S
O126        C136   1.279       .  A
O127       Cu133   2.023   1_655  S
O127        C137   1.279       .  A
O128       Cu133   2.028   1_554  S
O128        C138   1.279       .  A
O129       Cu134   2.019   1_554  S
O129        C138   1.275       .  A
O130       Cu134   2.010   1_655  S
O130        C137   1.277       .  A
O131       Cu134   2.005       .  S
O131        C136   1.274       .  A
O132       Cu134   2.002   1_654  S
O132        C135   1.273       .  A
Cu133      Cu134   2.370       .  S
C135       C1210   1.469       .  S
C136       C1130   1.473       .  S
C137       C1181   1.483       .  S
C138       C1149   1.481       .  S
C139       C1245   1.484       .  S
C139        C140   1.402       .  A
C139        C144   1.414       .  A
C140        C141   1.388       .  A
C140        H145   1.085       .  S
C141       C1114   1.470       .  S
C141        C142   1.390       .  A
C142        C143   1.410       .  A
C142        H146   1.084       .  S
C143       C1098   1.500       .  S
C143        C144   1.416       .  A
C144        H147   1.078       .  S
C148       C1133   1.481       .  S
C148        C149   1.401       .  A
C148        C153   1.405       .  A
C149        C150   1.401       .  A
C149        H154   1.083       .  S
C150       C1082   1.495       .  S
C150        C151   1.404       .  A
C151        C152   1.402       .  A
C151        H155   1.082       .  S
C152       C1066   1.475       .  S
C152        C153   1.405       .  A
C153        H156   1.082       .  S
O157       Cu165   2.013       .  S
O157        C167   1.278       .  A
O158       Cu165   2.006       .  S
O158        C168   1.277       .  A
O159       Cu165   2.025       .  S
O159        C169   1.279       .  A
O160       Cu165   2.022       .  S
O160        C170   1.279       .  A
O161       Cu166   2.008       .  S
O161        C170   1.275       .  A
O162       Cu166   2.005       .  S
O162        C169   1.275       .  A
O163       Cu166   2.013       .  S
O163        C168   1.277       .  A
O164       Cu166   2.015       .  S
O164        C167   1.276       .  A
Cu165      Cu166   2.369       .  S
C167       C1101   1.474       .  S
C168       C1069   1.487       .  S
C169       C1050   1.479       .  S
C170       C1034   1.474       .  S
C171       C1402   1.476       .  S
C171        C172   1.401       .  A
C171        C176   1.408       .  A
C172        C173   1.396       .  A
C172        H177   1.084       .  S
C173       C1018   1.475       .  S
C173        C174   1.396       .  A
C174        C175   1.403       .  A
C174        H178   1.085       .  S
C175       C1002   1.481       .  S
C175        C176   1.408       .  A
C176        H179   1.083       .  S
C180        C970   1.487       .  S
C180        C181   1.405       .  A
C180        C185   1.412       .  A
C181        C182   1.394       .  A
C181        H186   1.085       .  S
C182        C986   1.473       .  S
C182        C183   1.394       .  A
C183        C184   1.400       .  A
C183        H187   1.085       .  S
C184       C1053   1.477       .  S
C184        C185   1.410       .  A
C185        H188   1.083       .  S
C189        C938   1.488       .  S
C189        C190   1.414       .  A
C189        C194   1.401       .  A
C190        C191   1.411       .  A
C190        H195   1.083       .  S
C191       C1517   1.481       .  S
C191        C192   1.401       .  A
C192        C193   1.396       .  A
C192        H196   1.084       .  S
C193        C954   1.470       .  S
C193        C194   1.394       .  A
C194        H197   1.085       .  S
O198       Cu206   2.005       .  S
O198        C208   1.277       .  A
O199       Cu206   2.003   1_566  S
O199        C209   1.276       .  A
O200       Cu206   2.022   1_556  S
O200        C210   1.279       .  A
O201       Cu206   2.022   1_565  S
O201        C211   1.280       .  A
O202       Cu207   2.019   1_565  S
O202        C211   1.277       .  A
O203       Cu207   2.018   1_556  S
O203        C210   1.276       .  A
O204       Cu207   2.022   1_566  S
O204        C209   1.278       .  A
O205       Cu207   2.015       .  S
O205        C208   1.278       .  A
Cu206      Cu207   2.357       .  S
C208       C1005   1.491       .  S
C209        C973   1.496       .  S
C210        C922   1.494       .  S
C211        C941   1.504       .  S
C212       C1373   1.486       .  S
C212        C213   1.400       .  A
C212        C217   1.414       .  A
C213        C214   1.392       .  A
C213        H218   1.083       .  S
C214        C906   1.465       .  S
C214        C215   1.393       .  A
C215        C216   1.400       .  A
C215        H219   1.085       .  S
C216        C893   1.477       .  S
C216        C217   1.409       .  A
C217        H220   1.083       .  S
C221        C858   1.482       .  S
C221        C222   1.402       .  A
C221        C226   1.410       .  A
C222        C223   1.392       .  A
C222        H227   1.085       .  S
C223        C874   1.472       .  S
C223        C224   1.394       .  A
C224        C225   1.405       .  A
C224        H228   1.085       .  S
C225       C1037   1.489       .  S
C225        C226   1.413       .  A
C226        H229   1.082       .  S
C230        C826   1.475       .  S
C230        C231   1.407       .  A
C230        C235   1.401       .  A
C231        C232   1.406       .  A
C231        H236   1.083       .  S
C232       C1533   1.473       .  S
C232        C233   1.400       .  A
C233        C234   1.395       .  A
C233        H237   1.084       .  S
C234        C842   1.472       .  S
C234        C235   1.396       .  A
C235        H238   1.085       .  S
O239       Cu247   2.001   1_546  S
O239        C249   1.276       .  A
O240       Cu247   2.002       .  S
O240        C250   1.276       .  A
O241       Cu247   2.017   1_545  S
O241        C251   1.278       .  A
O242       Cu247   2.014   1_556  S
O242        C252   1.279       .  A
O243       Cu248   2.003   1_566  S
O243        C252   1.274       .  A
O244       Cu248   1.994       .  S
O244        C251   1.276       .  A
O245       Cu248   2.020   1_565  S
O245        C250   1.277       .  A
O246       Cu248   2.019   1_556  S
O246        C249   1.279       .  A
Cu247      Cu248   2.363   1_565  S
C249        C861   1.495       .  S
C250        C890   1.477       .  S
C251        C810   1.478       .  S
C252        C829   1.486       .  S
C253        C778   1.479       .  S
C253        C254   1.409       .  A
C253        C258   1.401       .  A
C254        C255   1.410       .  A
C254        H259   1.081       .  S
C255       C1501   1.492       .  S
C255        C256   1.404       .  A
C256        C257   1.403       .  A
C256        H260   1.083       .  S
C257        C797   1.498       .  S
C257        C258   1.402       .  A
C258        H261   1.082       .  S
C262       C1421   1.487       .  S
C262        C263   1.403       .  A
C262        C267   1.413       .  A
C263        C264   1.393       .  A
C263        H268   1.084       .  S
C264        C762   1.474       .  S
C264        C265   1.394       .  A
C265        C266   1.405       .  A
C265        H269   1.085       .  S
C266        C749   1.490       .  S
C266        C267   1.413       .  A
C267        H270   1.082       .  S
C271       C1546   1.483       .  S
C271        C272   1.404       .  A
C271        C276   1.408       .  A
C272        C273   1.398       .  A
C272        H277   1.085       .  S
C273        C730   1.484       .  S
C273        C274   1.399       .  A
C274        C275   1.403       .  A
C274        H278   1.083       .  S
C275        C714   1.478       .  S
C275        C276   1.408       .  A
C276        H279   1.083       .  S
O280       Cu288   2.015   1_655  S
O280        C290   1.277       .  A
O281       Cu288   2.017   1_545  S
O281        C291   1.278       .  A
O282       Cu288   2.007   1_645  S
O282        C292   1.277       .  A
O283       Cu288   2.011       .  S
O283        C293   1.277       .  A
O284       Cu289   2.014       .  S
O284        C293   1.275       .  A
O285       Cu289   2.020   1_645  S
O285        C292   1.279       .  A
O286       Cu289   2.001   1_545  S
O286        C291   1.276       .  A
O287       Cu289   2.011   1_655  S
O287        C290   1.275       .  A
Cu288      Cu289   2.361       .  S
C290        C781   1.479       .  S
C291        C698   1.478       .  S
C292        C746   1.499       .  S
C293        C717   1.477       .  S
C294        C666   1.483       .  S
C294        C295   1.402       .  A
C294        C299   1.412       .  A
C295        C296   1.396       .  A
C295        H300   1.085       .  S
C296        C682   1.472       .  S
C296        C297   1.396       .  A
C297        C298   1.401       .  A
C297        H301   1.085       .  S
C298        C925   1.482       .  S
C298        C299   1.411       .  A
C299        H302   1.083       .  S
C303        C634   1.478       .  S
C303        C304   1.409       .  A
C303        C308   1.401       .  A
C304        C305   1.408       .  A
C304        H309   1.083       .  S
C305        C813   1.475       .  S
C305        C306   1.399       .  A
C306        C307   1.396       .  A
C306        H310   1.085       .  S
C307        C650   1.473       .  S
C307        C308   1.396       .  A
C308        H311   1.084       .  S
C312        C701   1.475       .  S
C312        C313   1.402       .  A
C312        C317   1.405       .  A
C313        C314   1.402       .  A
C313        H318   1.078       .  S
C314        C618   1.496       .  S
C314        C315   1.405       .  A
C315        C316   1.399       .  A
C315        H319   1.083       .  S
C316        C602   1.477       .  S
C316        C317   1.404       .  A
C317        H320   1.083       .  S
O321       Cu329   2.018       .  S
O321        C331   1.276       .  A
O322       Cu329   2.013       .  S
O322        C332   1.277       .  A
O323       Cu329   2.004       .  S
O323        C333   1.274       .  A
O324       Cu329   2.010       .  S
O324        C334   1.276       .  A
O325       Cu330   2.017       .  S
O325        C334   1.278       .  A
O326       Cu330   2.019       .  S
O326        C333   1.278       .  A
O327       Cu330   2.019       .  S
O327        C332   1.280       .  A
O328       Cu330   2.026       .  S
O328        C331   1.279       .  A
Cu329      Cu330   2.366       .  S
C331        C669   1.480       .  S
C332        C637   1.493       .  S
C333        C586   1.472       .  S
C334        C605   1.474       .  S
C335       C1485   1.486       .  S
C335        C336   1.399       .  A
C335        C340   1.414       .  A
C336        C337   1.396       .  A
C336        H341   1.082       .  S
C337        C570   1.493       .  S
C337        C338   1.398       .  A
C338        C339   1.413       .  A
C338        H342   1.083       .  S
C339        C554   1.516       .  S
C339        C340   1.420       .  A
C340        H343   1.076       .  S
C344       C1437   1.483       .  S
C344        C345   1.400       .  A
C344        C349   1.413       .  A
C345        C346   1.391       .  A
C345        H350   1.085       .  S
C346        C538   1.470       .  S
C346        C347   1.394       .  A
C347        C348   1.404       .  A
C347        H351   1.083       .  S
C348        C522   1.492       .  S
C348        C349   1.417       .  A
C349        H352   1.083       .  S
C353        C490   1.476       .  S
C353        C354   1.408       .  A
C353        C358   1.401       .  A
C354        C355   1.410       .  A
C354        H359   1.084       .  S
C355        C589   1.481       .  S
C355        C356   1.402       .  A
C356        C357   1.395       .  A
C356        H360   1.084       .  S
C357        C506   1.472       .  S
C357        C358   1.396       .  A
C358        H361   1.084       .  S
C362       C1565   1.483       .  S
C362        C363   1.402       .  A
C362        C367   1.411       .  A
C363        C364   1.394       .  A
C363        H368   1.085       .  S
C364        C474   1.470       .  S
C364        C365   1.394       .  A
C365        C366   1.401       .  A
C365        H369   1.085       .  S
C366        C461   1.480       .  S
C366        C367   1.410       .  A
C367        H370   1.083       .  S
O371       Cu379   2.018   1_655  S
O371        C381   1.276       .  A
O372       Cu379   2.023   1_565  S
O372        C382   1.278       .  A
O373       Cu379   2.005       .  S
O373        C383   1.275       .  A
O374       Cu379   2.019   1_665  S
O374        C384   1.274       .  A
O375       Cu380   2.029   1_655  S
O375        C384   1.279       .  A
O376       Cu380   2.025   1_545  S
O376        C383   1.279       .  A
O377       Cu380   2.017       .  S
O377        C382   1.279       .  A
O378       Cu380   2.006   1_645  S
O378        C381   1.277       .  A
Cu379      Cu380   2.367   1_545  S
C381        C493   1.483       .  S
C382        C557   1.483       .  S
C383        C458   1.477       .  S
C384        C525   1.481       .  S
C385       C1277   1.474       .  S
C385        C386   1.401       .  A
C385        C390   1.400       .  A
C386        C387   1.402       .  A
C386        H391   1.084       .  S
C387       C1021   1.477       .  S
C387        C388   1.402       .  A
C388        C389   1.401       .  A
C388        H392   1.084       .  S
C389        C509   1.474       .  S
C389        C390   1.400       .  A
C390        H393   1.084       .  S
C394        C541   1.472       .  S
C394        C395   1.397       .  A
C394        C399   1.400       .  A
C395        C396   1.396       .  A
C395        H400   1.084       .  S
C396        C957   1.470       .  S
C396        C397   1.399       .  A
C397        C398   1.406       .  A
C397        H401   1.083       .  S
C398       C1226   1.492       .  S
C398        C399   1.407       .  A
C399        H402   1.083       .  S
C403        C573   1.490       .  S
C403        C404   1.406       .  A
C403        C408   1.404       .  A
C404        C405   1.403       .  A
C404        H409   1.079       .  S
C405       C1165   1.473       .  S
C405        C406   1.399       .  A
C406        C407   1.397       .  A
C406        H410   1.083       .  S
C407        C909   1.469       .  S
C407        C408   1.394       .  A
C408        H411   1.084       .  S
C412        C845   1.469       .  S
C412        C413   1.398       .  A
C412        C417   1.397       .  A
C413        C414   1.406       .  A
C413        H418   1.083       .  S
C414       C1085   1.496       .  S
C414        C415   1.410       .  A
C415        C416   1.401       .  A
C415        H419   1.082       .  S
C416        C733   1.472       .  S
C416        C417   1.398       .  A
C417        H420   1.084       .  S
C421        C877   1.475       .  S
C421        C422   1.398       .  A
C421        C426   1.402       .  A
C422        C423   1.398       .  A
C422        H427   1.084       .  S
C423       C1306   1.473       .  S
C423        C424   1.400       .  A
C424        C425   1.407       .  A
C424        H428   1.083       .  S
C425        C621   1.497       .  S
C425        C426   1.410       .  A
C426        H429   1.082       .  S
C430       C1117   1.477       .  S
C430        C431   1.402       .  A
C430        C435   1.402       .  A
C431        C432   1.400       .  A
C431        H436   1.084       .  S
C432        C685   1.474       .  S
C432        C433   1.400       .  A
C433        C434   1.399       .  A
C433        H437   1.084       .  S
C434        C765   1.472       .  S
C434        C435   1.400       .  A
C435        H438   1.084       .  S
C439        C794   1.494       .  S
C439        C440   1.407       .  A
C439        C444   1.406       .  A
C440        C441   1.399       .  A
C440        H445   1.083       .  S
C441       C1197   1.471       .  S
C441        C442   1.398       .  A
C442        C443   1.398       .  A
C442        H446   1.084       .  S
C443        C989   1.472       .  S
C443        C444   1.400       .  A
C444        H447   1.079       .  S
C448       C1341   1.476       .  S
C448        C449   1.400       .  A
C448        C453   1.402       .  A
C449        C450   1.400       .  A
C449        H454   1.083       .  S
C450        C653   1.472       .  S
C450        C451   1.399       .  A
C451        C452   1.402       .  A
C451        H455   1.084       .  S
C452        C477   1.477       .  S
C452        C453   1.401       .  A
C453        H456   1.084       .  S
C457        C458   1.401       .  A
C457        C462   1.403       .  A
C457        H464   1.085       .  S
C458        C459   1.414       .  A
C459        C460   1.408       .  A
C459        C466   1.505   1_455  S
C460        C461   1.402       .  A
C460        H465   1.084       .  S
C461        C462   1.413       .  A
C462        C463   1.507       .  S
C463        H467   1.106       .  S
C463        H468   1.110       .  S
C463        H469   1.108       .  S
C466        H470   1.109       .  S
C466        H471   1.110       .  S
C466        H472   1.111       .  S
C473        C474   1.400       .  A
C473        C478   1.399       .  A
C473        H480   1.085       .  S
C474        C475   1.408       .  A
C475        C476   1.401       .  A
C475        C482   1.506       .  S
C476        C477   1.405       .  A
C476        H481   1.084       .  S
C477        C478   1.417       .  A
C478        C479   1.509       .  S
C479        H483   1.111       .  S
C479        H484   1.107       .  S
C479        H485   1.110       .  S
C482        H486   1.111       .  S
C482        H487   1.110       .  S
C482        H488   1.111       .  S
C489        C490   1.402       .  A
C489        C494   1.406       .  A
C489        H496   1.084       .  S
C490        C491   1.409       .  A
C491        C492   1.403       .  A
C491        C498   1.506   1_545  S
C492        C493   1.405       .  A
C492        H497   1.084   1_545  S
C493        C494   1.417       .  A
C494        C495   1.507       .  S
C495        H499   1.111       .  S
C495        H500   1.109       .  S
C495        H501   1.110       .  S
C498        H502   1.110   1_565  S
C498        H503   1.110       .  S
C498        H504   1.111       .  S
C505        C506   1.401       .  A
C505        C510   1.402       .  A
C505        H512   1.084       .  S
C506        C507   1.412       .  A
C507        C508   1.402       .  A
C507        C514   1.507       .  S
C508        C509   1.402       .  A
C508        H513   1.084       .  S
C509        C510   1.413       .  A
C510        C511   1.507       .  S
C511        H515   1.111       .  S
C511        H516   1.110       .  S
C511        H517   1.109       .  S
C514        H518   1.111       .  S
C514        H519   1.109       .  S
C514        H520   1.111       .  S
C521        C522   1.404       .  A
C521        C526   1.406       .  A
C521        H528   1.084       .  S
C522        C523   1.423       .  A
C523        C524   1.406       .  A
C523        C530   1.511       .  S
C524        C525   1.399       .  A
C524        H529   1.085       .  S
C525        C526   1.411       .  A
C526        C527   1.497   1_655  S
C527        H531   1.111       .  S
C527        H532   1.108       .  S
C527        H533   1.098       .  S
C530        H534   1.110       .  S
C530        H535   1.104       .  S
C530        H536   1.109       .  S
C537        C538   1.402       .  A
C537        C542   1.401       .  A
C537        H544   1.084       .  S
C538        C539   1.409       .  A
C539        C540   1.400       .  A
C539        C546   1.507       .  S
C540        C541   1.404       .  A
C540        H545   1.084       .  S
C541        C542   1.411       .  A
C542        C543   1.507       .  S
C543        H547   1.111       .  S
C543        H548   1.110       .  S
C543        H549   1.108       .  S
C546        H550   1.110       .  S
C546        H551   1.109       .  S
C546        H552   1.111       .  S
C553        C554   1.412       .  A
C553        C558   1.393       .  A
C553        H560   1.083       .  S
C554        C555   1.425       .  A
C555        C556   1.418       .  A
C555        C562   1.505   1_565  S
C556        C557   1.408       .  A
C556        H561   1.084   1_565  S
C557        C558   1.409       .  A
C558        C559   1.506       .  S
C559        H563   1.111       .  S
C559        H564   1.103       .  S
C559        H565   1.110       .  S
C562        H566   1.110       .  S
C562        H567   1.108       .  S
C562        H568   1.111       .  S
C569        C570   1.409       .  A
C569        C574   1.402       .  A
C569        H576   1.083       .  S
C570        C571   1.415       .  A
C571        C572   1.397       .  A
C571        C578   1.507       .  S
C572        C573   1.408       .  A
C572        H577   1.084       .  S
C573        C574   1.417       .  A
C574        C575   1.510       .  S
C575        H579   1.111       .  S
C575        H580   1.107       .  S
C575        H581   1.110       .  S
C578        H582   1.110       .  S
C578        H583   1.105       .  S
C578        H584   1.111       .  S
C585        C586   1.400       .  A
C585        C590   1.403       .  A
C585        H592   1.085       .  S
C586        C587   1.410       .  A
C587        C588   1.405       .  A
C587        C594   1.504       .  S
C588        C589   1.403       .  A
C588        H593   1.084       .  S
C589        C590   1.417       .  A
C590        C591   1.509       .  S
C591        H595   1.109       .  S
C591        H596   1.110       .  S
C591        H597   1.106       .  S
C594        H598   1.109       .  S
C594        H599   1.110       .  S
C594        H600   1.111       .  S
C601        C602   1.403       .  A
C601        C606   1.410       .  A
C601        H608   1.084       .  S
C602        C603   1.414       .  A
C603        C604   1.399       .  A
C603        C610   1.510       .  S
C604        C605   1.397       .  A
C604        H609   1.077       .  S
C605        C606   1.413       .  A
C606        C607   1.505       .  S
C607        H611   1.111       .  S
C607        H612   1.111       .  S
C607        H613   1.110       .  S
C610        H614   1.110       .  S
C610        H615   1.108       .  S
C610        H616   1.108       .  S
C617        C618   1.407       .  A
C617        C622   1.397       .  A
C617        H624   1.083       .  S
C618        C619   1.420       .  A
C619        C620   1.404       .  A
C619        C626   1.509       .  S
C620        C621   1.408       .  A
C620        H625   1.082       .  S
C621        C622   1.416       .  A
C622        C623   1.506       .  S
C623        H627   1.111       .  S
C623        H628   1.110       .  S
C623        H629   1.106       .  S
C626        H630   1.107       .  S
C626        H631   1.110       .  S
C626        H632   1.111       .  S
C633        C634   1.396       .  A
C633        C638   1.405       .  A
C633        H640   1.084       .  S
C634        C635   1.411       .  A
C635        C636   1.405       .  A
C635        C642   1.506       .  S
C636        C637   1.407       .  A
C636        H641   1.084       .  S
C637        C638   1.420       .  A
C638        C639   1.499       .  S
C639        H643   1.110   1_545  S
C639        H644   1.110       .  S
C639        H645   1.106   1_545  S
C642        H646   1.107       .  S
C642        H647   1.110       .  S
C642        H648   1.111       .  S
C649        C650   1.402       .  A
C649        C654   1.401       .  A
C649        H656   1.084       .  S
C650        C651   1.412       .  A
C651        C652   1.400       .  A
C651        C658   1.507       .  S
C652        C653   1.401       .  A
C652        H657   1.084       .  S
C653        C654   1.412       .  A
C654        C655   1.507       .  S
C655        H659   1.111       .  S
C655        H660   1.110       .  S
C655        H661   1.109       .  S
C658        H662   1.111       .  S
C658        H663   1.107       .  S
C658        H664   1.111       .  S
C665        C666   1.404       .  A
C665        C670   1.409       .  A
C665        H672   1.084       .  S
C666        C667   1.417       .  A
C667        C668   1.402       .  A
C667        C674   1.508       .  S
C668        C669   1.400       .  A
C668        H673   1.082       .  S
C669        C670   1.413       .  A
C670        C671   1.504       .  S
C671        H675   1.111       .  S
C671        H676   1.105       .  S
C671        H677   1.110       .  S
C674        H678   1.108       .  S
C674        H679   1.111       .  S
C674        H680   1.110       .  S
C681        C682   1.401       .  A
C681        C686   1.400       .  A
C681        H688   1.084       .  S
C682        C683   1.411       .  A
C683        C684   1.402       .  A
C683        C690   1.507       .  S
C684        C685   1.403       .  A
C684        H689   1.084       .  S
C685        C686   1.413       .  A
C686        C687   1.508       .  S
C687        H691   1.111       .  S
C687        H692   1.110       .  S
C687        H693   1.108       .  S
C690        H694   1.110       .  S
C690        H695   1.109       .  S
C690        H696   1.111       .  S
C697        C698   1.401       .  A
C697        C702   1.400       .  A
C697        H704   1.085       .  S
C698        C699   1.416       .  A
C699        C700   1.408       .  A
C699        C706   1.507   1_545  S
C700        C701   1.401       .  A
C700        H705   1.084       .  S
C701        C702   1.410       .  A
C702        C703   1.505       .  S
C703        H707   1.105       .  S
C703        H708   1.110       .  S
C703        H709   1.109       .  S
C706        H710   1.111       .  S
C706        H711   1.109       .  S
C706        H712   1.111       .  S
C713        C714   1.402       .  A
C713        C718   1.406       .  A
C713        H720   1.084       .  S
C714        C715   1.412       .  A
C715        C716   1.404       .  A
C715        C722   1.506       .  S
C716        C717   1.403       .  A
C716        H721   1.084       .  S
C717        C718   1.413       .  A
C718        C719   1.507   1_455  S
C719        H723   1.111       .  S
C719        H724   1.111       .  S
C719        H725   1.109       .  S
C722        H726   1.110       .  S
C722        H727   1.110       .  S
C722        H728   1.111       .  S
C729        C730   1.408       .  A
C729        C734   1.403       .  A
C729        H736   1.084       .  S
C730        C731   1.416       .  A
C731        C732   1.403       .  A
C731        C738   1.508       .  S
C732        C733   1.400       .  A
C732        H737   1.084       .  S
C733        C734   1.407       .  A
C734        C735   1.506       .  S
C735        H739   1.111       .  S
C735        H740   1.111       .  S
C735        H741   1.110       .  S
C738        H742   1.110       .  S
C738        H743   1.107       .  S
C738        H744   1.111       .  S
C745        C746   1.412       .  A
C745        C750   1.410       .  A
C745        H752   1.083       .  S
C746        C747   1.423       .  A
C747        C748   1.402       .  A
C747        C754   1.510       .  S
C748        C749   1.403       .  A
C748        H753   1.085       .  S
C749        C750   1.412       .  A
C750        C751   1.507       .  S
C751        H755   1.110       .  S
C751        H756   1.109       .  S
C751        H757   1.110       .  S
C754        H758   1.110   1_655  S
C754        H759   1.110       .  S
C754        H760   1.111       .  S
C761        C762   1.403       .  A
C761        C766   1.400       .  A
C761        H768   1.084       .  S
C762        C763   1.412       .  A
C763        C764   1.402       .  A
C763        C770   1.507       .  S
C764        C765   1.402       .  A
C764        H769   1.084       .  S
C765        C766   1.411       .  A
C766        C767   1.507       .  S
C767        H771   1.111       .  S
C767        H772   1.111       .  S
C767        H773   1.109       .  S
C770        H774   1.110       .  S
C770        H775   1.109       .  S
C770        H776   1.111       .  S
C777        C778   1.402       .  A
C777        C782   1.409       .  A
C777        H784   1.084       .  S
C778        C779   1.413       .  A
C779        C780   1.402       .  A
C779        C786   1.506       .  S
C780        C781   1.401       .  A
C780        H785   1.085       .  S
C781        C782   1.416       .  A
C782        C783   1.506   1_565  S
C783        H787   1.111       .  S
C783        H788   1.111       .  S
C783        H789   1.109       .  S
C786        H790   1.110       .  S
C786        H791   1.109       .  S
C786        H792   1.108       .  S
C793        C794   1.408       .  A
C793        C798   1.402       .  A
C793        H800   1.084       .  S
C794        C795   1.419       .  A
C795        C796   1.399       .  A
C795        C802   1.511       .  S
C796        C797   1.409       .  A
C796        H801   1.083       .  S
C797        C798   1.419       .  A
C798        C799   1.509       .  S
C799        H803   1.111       .  S
C799        H804   1.110       .  S
C799        H805   1.106       .  S
C802        H806   1.107       .  S
C802        H807   1.110       .  S
C802        H808   1.111       .  S
C809        C810   1.404       .  A
C809        C814   1.401       .  A
C809        H816   1.085       .  S
C810        C811   1.414       .  A
C811        C812   1.406       .  A
C811        C818   1.506   1_545  S
C812        C813   1.403       .  A
C812        H817   1.084       .  S
C813        C814   1.411       .  A
C814        C815   1.507       .  S
C815        H819   1.111       .  S
C815        H820   1.110       .  S
C815        H821   1.110       .  S
C818        H822   1.111       .  S
C818        H823   1.109       .  S
C818        H824   1.111       .  S
C825        C826   1.399       .  A
C825        C830   1.405       .  A
C825        H832   1.084       .  S
C826        C827   1.411       .  A
C827        C828   1.402       .  A
C827        C834   1.508       .  S
C828        C829   1.405       .  A
C828        H833   1.084   1_565  S
C829        C830   1.421       .  A
C830        C831   1.506       .  S
C831        H835   1.111       .  S
C831        H836   1.108       .  S
C831        H837   1.106       .  S
C834        H838   1.109       .  S
C834        H839   1.110       .  S
C834        H840   1.111   1_565  S
C841        C842   1.403       .  A
C841        C846   1.401       .  A
C841        H848   1.084       .  S
C842        C843   1.412       .  A
C843        C844   1.400       .  A
C843        C850   1.508       .  S
C844        C845   1.402       .  A
C844        H849   1.084       .  S
C845        C846   1.409       .  A
C846        C847   1.506       .  S
C847        H851   1.111       .  S
C847        H852   1.110       .  S
C847        H853   1.109       .  S
C850        H854   1.110       .  S
C850        H855   1.109       .  S
C850        H856   1.111       .  S
C857        C858   1.400       .  A
C857        C862   1.401       .  A
C857        H864   1.085       .  S
C858        C859   1.411       .  A
C859        C860   1.407       .  A
C859        C866   1.506       .  S
C860        C861   1.410       .  A
C860        H865   1.082       .  S
C861        C862   1.422       .  A
C862        C863   1.509   1_556  S
C863        H867   1.111       .  S
C863        H868   1.110       .  S
C863        H869   1.110   1_554  S
C866        H870   1.109       .  S
C866        H871   1.110       .  S
C866        H872   1.111       .  S
C873        C874   1.399       .  A
C873        C878   1.400       .  A
C873        H880   1.084       .  S
C874        C875   1.413       .  A
C875        C876   1.402       .  A
C875        C882   1.507       .  S
C876        C877   1.402       .  A
C876        H881   1.084       .  S
C877        C878   1.414       .  A
C878        C879   1.504       .  S
C879        H883   1.111       .  S
C879        H884   1.110       .  S
C879        H885   1.105       .  S
C882        H886   1.110       .  S
C882        H887   1.109       .  S
C882        H888   1.111       .  S
C889        C890   1.402       .  A
C889        C894   1.404       .  A
C889        H896   1.083       .  S
C890        C891   1.415       .  A
C891        C892   1.405       .  A
C891        C898   1.507   1_554  S
C892        C893   1.400       .  A
C892        H897   1.084   1_554  S
C893        C894   1.413       .  A
C894        C895   1.507       .  S
C895        H899   1.111       .  S
C895        H900   1.110       .  S
C895        H901   1.110       .  S
C898        H902   1.111       .  S
C898        H903   1.109       .  S
C898        H904   1.111       .  S
C905        C906   1.402       .  A
C905        C910   1.402       .  A
C905        H912   1.084       .  S
C906        C907   1.408       .  A
C907        C908   1.397       .  A
C907        C914   1.507       .  S
C908        C909   1.403       .  A
C908        H913   1.085       .  S
C909        C910   1.411       .  A
C910        C911   1.506       .  S
C911        H915   1.111       .  S
C911        H916   1.110       .  S
C911        H917   1.109       .  S
C914        H918   1.110       .  S
C914        H919   1.110       .  S
C914        H920   1.111       .  S
C921        C922   1.407       .  A
C921        C926   1.406       .  A
C921        H928   1.084   1_545  S
C922        C923   1.422       .  A
C923        C924   1.408       .  A
C923        C930   1.506       .  S
C924        C925   1.400       .  A
C924        H929   1.084       .  S
C925        C926   1.411       .  A
C926        C927   1.507       .  S
C927        H931   1.111   1_545  S
C927        H932   1.110       .  S
C927        H933   1.110   1_545  S
C930        H934   1.109       .  S
C930        H935   1.106       .  S
C930        H936   1.111       .  S
C937        C938   1.398       .  A
C937        C942   1.407       .  A
C937        H944   1.084       .  S
C938        C939   1.417       .  A
C939        C940   1.404       .  A
C939        C946   1.509       .  S
C940        C941   1.407       .  A
C940        H945   1.084       .  S
C941        C942   1.424       .  A
C942        C943   1.499       .  S
C943        H947   1.111       .  S
C943        H948   1.108       .  S
C943        H949   1.103       .  S
C946        H950   1.111       .  S
C946        H951   1.108       .  S
C946        H952   1.110       .  S
C953        C954   1.402       .  A
C953        C958   1.399       .  A
C953        H960   1.084       .  S
C954        C955   1.410       .  A
C955        C956   1.401       .  A
C955        C962   1.507       .  S
C956        C957   1.402       .  A
C956        H961   1.084       .  S
C957        C958   1.410       .  A
C958        C959   1.507       .  S
C959        H963   1.111       .  S
C959        H964   1.110       .  S
C959        H965   1.109       .  S
C962        H966   1.110       .  S
C962        H967   1.109       .  S
C962        H968   1.111       .  S
C969        C970   1.402       .  A
C969        C974   1.402       .  A
C969        H976   1.085       .  S
C970        C971   1.412       .  A
C971        C972   1.408       .  A
C971        C978   1.506       .  S
C972        C973   1.411       .  A
C972        H977   1.082       .  S
C973        C974   1.422       .  A
C974        C975   1.509       .  S
C975        H979   1.111       .  S
C975        H980   1.110   1_556  S
C975        H981   1.110       .  S
C978        H982   1.109       .  S
C978        H983   1.110       .  S
C978        H984   1.110       .  S
C985        C986   1.403       .  A
C985        C990   1.402       .  A
C985        H992   1.084       .  S
C986        C987   1.410       .  A
C987        C988   1.401       .  A
C987        C994   1.507       .  S
C988        C989   1.403       .  A
C988        H993   1.084       .  S
C989        C990   1.410       .  A
C990        C991   1.506       .  S
C991        H995   1.111       .  S
C991        H996   1.110       .  S
C991        H997   1.109       .  S
C994        H998   1.110       .  S
C994        H999   1.109       .  S
C994       H1000   1.111       .  S
C1001      C1002   1.400       .  A
C1001      C1006   1.402       .  A
C1001      H1008   1.085       .  S
C1002      C1003   1.410       .  A
C1003      C1004   1.407       .  A
C1003      C1010   1.506       .  S
C1004      C1005   1.410       .  A
C1004      H1009   1.084       .  S
C1005      C1006   1.421       .  A
C1006      C1007   1.509   1_554  S
C1007      H1011   1.111       .  S
C1007      H1012   1.111       .  S
C1007      H1013   1.109   1_556  S
C1010      H1014   1.110       .  S
C1010      H1015   1.110       .  S
C1010      H1016   1.111       .  S
C1017      C1018   1.402       .  A
C1017      C1022   1.402       .  A
C1017      H1024   1.084       .  S
C1018      C1019   1.411       .  A
C1019      C1020   1.402       .  A
C1019      C1026   1.507       .  S
C1020      C1021   1.403       .  A
C1020      H1025   1.084       .  S
C1021      C1022   1.413       .  A
C1022      C1023   1.508       .  S
C1023      H1027   1.111       .  S
C1023      H1028   1.110       .  S
C1023      H1029   1.108       .  S
C1026      H1030   1.110       .  S
C1026      H1031   1.109       .  S
C1026      H1032   1.111       .  S
C1033      C1034   1.402       .  A
C1033      C1038   1.407       .  A
C1033      H1040   1.077       .  S
C1034      C1035   1.409       .  A
C1035      C1036   1.401       .  A
C1035      C1042   1.509       .  S
C1036      C1037   1.408       .  A
C1036      H1041   1.084       .  S
C1037      C1038   1.416       .  A
C1038      C1039   1.507       .  S
C1039      H1043   1.111       .  S
C1039      H1044   1.110       .  S
C1039      H1045   1.108       .  S
C1042      H1046   1.110       .  S
C1042      H1047   1.108       .  S
C1042      H1048   1.111       .  S
C1049      C1050   1.402       .  A
C1049      C1054   1.402       .  A
C1049      H1056   1.080       .  S
C1050      C1051   1.414       .  A
C1051      C1052   1.408       .  A
C1051      C1058   1.506       .  S
C1052      C1053   1.403       .  A
C1052      H1057   1.084       .  S
C1053      C1054   1.410       .  A
C1054      C1055   1.507       .  S
C1055      H1059   1.107       .  S
C1055      H1060   1.110       .  S
C1055      H1061   1.110       .  S
C1058      H1062   1.111       .  S
C1058      H1063   1.109       .  S
C1058      H1064   1.111       .  S
C1065      C1066   1.399       .  A
C1065      C1070   1.403       .  A
C1065      H1072   1.085       .  S
C1066      C1067   1.408       .  A
C1067      C1068   1.404       .  A
C1067      C1074   1.506       .  S
C1068      C1069   1.408       .  A
C1068      H1073   1.084       .  S
C1069      C1070   1.417       .  A
C1070      C1071   1.503       .  S
C1071      H1075   1.106   1_556  S
C1071      H1076   1.111       .  S
C1071      H1077   1.107   1_556  S
C1074      H1078   1.110       .  S
C1074      H1079   1.110       .  S
C1074      H1080   1.111       .  S
C1081      C1082   1.409       .  A
C1081      C1086   1.399       .  A
C1081      H1088   1.083       .  S
C1082      C1083   1.417       .  A
C1083      C1084   1.401       .  A
C1083      C1090   1.509       .  S
C1084      C1085   1.410       .  A
C1084      H1089   1.083       .  S
C1085      C1086   1.418       .  A
C1086      C1087   1.510       .  S
C1087      H1091   1.111       .  S
C1087      H1092   1.110       .  S
C1087      H1093   1.107       .  S
C1090      H1094   1.110       .  S
C1090      H1095   1.107       .  S
C1090      H1096   1.111       .  S
C1097      C1098   1.409       .  A
C1097      C1102   1.395       .  A
C1097      H1104   1.084       .  S
C1098      C1099   1.422       .  A
C1099      C1100   1.414       .  A
C1099      C1106   1.506       .  S
C1100      C1101   1.403       .  A
C1100      H1105   1.084       .  S
C1101      C1102   1.405       .  A
C1102      C1103   1.504       .  S
C1103      H1107   1.111       .  S
C1103      H1108   1.110       .  S
C1103      H1109   1.100       .  S
C1106      H1110   1.110       .  S
C1106      H1111   1.108       .  S
C1106      H1112   1.111       .  S
C1113      C1114   1.399       .  A
C1113      C1118   1.401       .  A
C1113      H1120   1.085       .  S
C1114      C1115   1.410       .  A
C1115      C1116   1.399       .  A
C1115      C1122   1.508       .  S
C1116      C1117   1.404       .  A
C1116      H1121   1.084       .  S
C1117      C1118   1.417       .  A
C1118      C1119   1.508       .  S
C1119      H1123   1.111       .  S
C1119      H1124   1.107       .  S
C1119      H1125   1.110       .  S
C1122      H1126   1.111       .  S
C1122      H1127   1.110       .  S
C1122      H1128   1.111       .  S
C1129      C1130   1.404       .  A
C1129      C1134   1.407       .  A
C1129      H1136   1.077   1_556  S
C1130      C1131   1.410       .  A
C1131      C1132   1.396       .  A
C1131      C1138   1.505       .  S
C1132      C1133   1.404       .  A
C1132      H1137   1.085       .  S
C1133      C1134   1.411       .  A
C1134      C1135   1.506   1_556  S
C1135      H1139   1.111       .  S
C1135      H1140   1.110       .  S
C1135      H1141   1.109       .  S
C1138      H1142   1.107       .  S
C1138      H1143   1.109       .  S
C1138      H1144   1.109       .  S
C1145      C1146   1.408       .  A
C1145      C1150   1.402       .  A
C1145      H1152   1.084       .  S
C1146      C1147   1.415       .  A
C1147      C1148   1.409       .  A
C1147      C1154   1.507   1_455  S
C1148      C1149   1.403       .  A
C1148      H1153   1.075   1_455  S
C1149      C1150   1.407       .  A
C1150      C1151   1.503       .  S
C1151      H1155   1.111       .  S
C1151      H1156   1.110       .  S
C1151      H1157   1.108       .  S
C1154      H1158   1.110   1_655  S
C1154      H1159   1.108       .  S
C1154      H1160   1.111       .  S
C1161      C1162   1.402       .  A
C1161      C1166   1.403       .  A
C1161      H1168   1.084       .  S
C1162      C1163   1.410       .  A
C1163      C1164   1.399       .  A
C1163      C1170   1.507       .  S
C1164      C1165   1.402       .  A
C1164      H1169   1.085       .  S
C1165      C1166   1.412       .  A
C1166      C1167   1.506       .  S
C1167      H1171   1.111       .  S
C1167      H1172   1.110       .  S
C1167      H1173   1.109       .  S
C1170      H1174   1.110       .  S
C1170      H1175   1.110       .  S
C1170      H1176   1.111       .  S
C1177      C1178   1.400       .  A
C1177      C1182   1.405       .  A
C1177      H1184   1.085       .  S
C1178      C1179   1.410       .  A
C1179      C1180   1.403       .  A
C1179      C1186   1.507       .  S
C1180      C1181   1.405       .  A
C1180      H1185   1.082       .  S
C1181      C1182   1.419       .  A
C1182      C1183   1.505   1_655  S
C1183      H1187   1.110       .  S
C1183      H1188   1.110       .  S
C1183      H1189   1.104       .  S
C1186      H1190   1.110       .  S
C1186      H1191   1.110       .  S
C1186      H1192   1.110       .  S
C1193      C1194   1.402       .  A
C1193      C1198   1.402       .  A
C1193      H1200   1.084       .  S
C1194      C1195   1.412       .  A
C1195      C1196   1.399       .  A
C1195      C1202   1.508       .  S
C1196      C1197   1.401       .  A
C1196      H1201   1.084       .  S
C1197      C1198   1.411       .  A
C1198      C1199   1.506       .  S
C1199      H1203   1.111       .  S
C1199      H1204   1.110       .  S
C1199      H1205   1.109       .  S
C1202      H1206   1.110       .  S
C1202      H1207   1.109       .  S
C1202      H1208   1.111       .  S
C1209      C1210   1.406       .  A
C1209      C1214   1.412       .  A
C1209      H1216   1.084   1_554  S
C1210      C1211   1.407       .  A
C1211      C1212   1.391       .  A
C1211      C1218   1.505       .  S
C1212      C1213   1.406       .  A
C1212      H1217   1.085       .  S
C1213      C1214   1.418       .  A
C1214      C1215   1.506   1_554  S
C1215      H1219   1.111       .  S
C1215      H1220   1.110       .  S
C1215      H1221   1.107       .  S
C1218      H1222   1.110       .  S
C1218      H1223   1.105       .  S
C1218      H1224   1.109       .  S
C1225      C1226   1.408       .  A
C1225      C1230   1.401       .  A
C1225      H1232   1.083       .  S
C1226      C1227   1.418       .  A
C1227      C1228   1.398       .  A
C1227      C1234   1.510       .  S
C1228      C1229   1.407       .  A
C1228      H1233   1.084       .  S
C1229      C1230   1.418       .  A
C1230      C1231   1.509       .  S
C1231      H1235   1.111       .  S
C1231      H1236   1.110       .  S
C1231      H1237   1.107       .  S
C1234      H1238   1.110       .  S
C1234      H1239   1.107       .  S
C1234      H1240   1.111       .  S
C1241      C1242   1.402       .  A
C1241      C1246   1.409       .  A
C1241      H1248   1.084   1_556  S
C1242      C1243   1.407       .  A
C1243      C1244   1.398       .  A
C1243      C1250   1.507       .  S
C1244      C1245   1.406       .  A
C1244      H1249   1.085       .  S
C1245      C1246   1.415       .  A
C1246      C1247   1.506   1_556  S
C1247      H1251   1.111       .  S
C1247      H1252   1.110   1_554  S
C1247      H1253   1.109       .  S
C1250      H1254   1.109       .  S
C1250      H1255   1.107       .  S
C1250      H1256   1.109       .  S
C1257      C1258   1.400       .  A
C1257      C1262   1.404       .  A
C1257      H1264   1.084       .  S
C1258      C1259   1.410       .  A
C1259      C1260   1.404       .  A
C1259      C1266   1.506   1_655  S
C1260      C1261   1.404       .  A
C1260      H1265   1.084   1_655  S
C1261      C1262   1.418       .  A
C1262      C1263   1.508       .  S
C1263      H1267   1.110       .  S
C1263      H1268   1.111       .  S
C1263      H1269   1.109       .  S
C1266      H1270   1.110   1_455  S
C1266      H1271   1.110       .  S
C1266      H1272   1.111       .  S
C1273      C1274   1.402       .  A
C1273      C1278   1.402       .  A
C1273      H1280   1.084       .  S
C1274      C1275   1.412       .  A
C1275      C1276   1.401       .  A
C1275      C1282   1.507       .  S
C1276      C1277   1.402       .  A
C1276      H1281   1.084       .  S
C1277      C1278   1.413       .  A
C1278      C1279   1.508       .  S
C1279      H1283   1.111       .  S
C1279      H1284   1.110       .  S
C1279      H1285   1.109       .  S
C1282      H1286   1.110       .  S
C1282      H1287   1.108       .  S
C1282      H1288   1.111       .  S
C1289      C1290   1.404       .  A
C1289      C1294   1.407       .  A
C1289      H1296   1.083   1_455  S
C1290      C1291   1.413       .  A
C1291      C1292   1.402       .  A
C1291      C1298   1.505       .  S
C1292      C1293   1.402       .  A
C1292      H1297   1.084       .  S
C1293      C1294   1.412       .  A
C1294      C1295   1.506       .  S
C1295      H1299   1.111   1_455  S
C1295      H1300   1.111       .  S
C1295      H1301   1.110   1_455  S
C1298      H1302   1.107       .  S
C1298      H1303   1.107       .  S
C1298      H1304   1.111       .  S
C1305      C1306   1.403       .  A
C1305      C1310   1.400       .  A
C1305      H1312   1.084       .  S
C1306      C1307   1.412       .  A
C1307      C1308   1.402       .  A
C1307      C1314   1.507       .  S
C1308      C1309   1.402       .  A
C1308      H1313   1.084       .  S
C1309      C1310   1.410       .  A
C1310      C1311   1.507       .  S
C1311      H1315   1.111       .  S
C1311      H1316   1.111       .  S
C1311      H1317   1.110       .  S
C1314      H1318   1.110       .  S
C1314      H1319   1.109       .  S
C1314      H1320   1.111       .  S
C1321      C1322   1.402       .  A
C1321      C1326   1.406       .  A
C1321      H1328   1.081   1_554  S
C1322      C1323   1.409       .  A
C1323      C1324   1.401       .  A
C1323      C1330   1.510       .  S
C1324      C1325   1.407       .  A
C1324      H1329   1.084       .  S
C1325      C1326   1.414       .  A
C1326      C1327   1.506   1_554  S
C1327      H1331   1.111       .  S
C1327      H1332   1.110       .  S
C1327      H1333   1.109       .  S
C1330      H1334   1.110       .  S
C1330      H1335   1.108       .  S
C1330      H1336   1.111       .  S
C1337      C1338   1.399       .  A
C1337      C1342   1.401       .  A
C1337      H1344   1.084       .  S
C1338      C1339   1.408       .  A
C1339      C1340   1.400       .  A
C1339      C1346   1.507       .  S
C1340      C1341   1.404       .  A
C1340      H1345   1.084       .  S
C1341      C1342   1.416       .  A
C1342      C1343   1.508       .  S
C1343      H1347   1.111       .  S
C1343      H1348   1.110       .  S
C1343      H1349   1.108       .  S
C1346      H1350   1.111       .  S
C1346      H1351   1.110       .  S
C1346      H1352   1.111       .  S
C1353      C1354   1.402       .  A
C1353      C1358   1.407       .  A
C1353      H1360   1.084       .  S
C1354      C1355   1.410       .  A
C1355      C1356   1.401       .  A
C1355      C1362   1.510       .  S
C1356      C1357   1.406       .  A
C1356      H1361   1.084       .  S
C1357      C1358   1.414       .  A
C1358      C1359   1.506       .  S
C1359      H1363   1.111       .  S
C1359      H1364   1.110       .  S
C1359      H1365   1.109       .  S
C1362      H1366   1.110       .  S
C1362      H1367   1.107       .  S
C1362      H1368   1.111       .  S
C1369      C1370   1.400       .  A
C1369      C1374   1.405       .  A
C1369      H1376   1.083       .  S
C1370      C1371   1.411       .  A
C1371      C1372   1.403       .  A
C1371      C1378   1.493       .  S
C1372      C1373   1.401       .  A
C1372      H1377   1.084       .  S
C1373      C1374   1.420       .  A
C1374      C1375   1.512       .  S
C1375      H1379   1.108       .  S
C1375      H1380   1.110       .  S
C1375      H1381   1.105       .  S
C1378      H1382   1.109       .  S
C1378      H1383   1.110       .  S
C1378      H1384   1.111       .  S
C1385      C1386   1.407       .  A
C1385      C1390   1.412       .  A
C1385      H1392   1.084       .  S
C1386      C1387   1.408       .  A
C1387      C1388   1.393       .  A
C1387      C1394   1.492       .  S
C1388      C1389   1.397       .  A
C1388      H1393   1.085       .  S
C1389      C1390   1.410       .  A
C1390      C1391   1.503       .  S
C1391      H1395   1.111       .  S
C1391      H1396   1.110       .  S
C1391      H1397   1.111       .  S
C1394      H1398   1.101       .  S
C1394      H1399   1.106       .  S
C1394      H1400   1.108       .  S
C1401      C1402   1.400       .  A
C1401      C1406   1.404       .  A
C1401      H1408   1.084       .  S
C1402      C1403   1.411       .  A
C1403      C1404   1.404       .  A
C1403      C1410   1.506       .  S
C1404      C1405   1.405       .  A
C1404      H1409   1.084       .  S
C1405      C1406   1.418       .  A
C1406      C1407   1.505       .  S
C1407      H1411   1.111       .  S
C1407      H1412   1.111       .  S
C1407      H1413   1.106   1_554  S
C1410      H1414   1.110       .  S
C1410      H1415   1.110       .  S
C1410      H1416   1.111       .  S
C1417      C1418   1.403       .  A
C1417      C1422   1.410       .  A
C1417      H1424   1.084       .  S
C1418      C1419   1.408       .  A
C1419      C1420   1.400       .  A
C1419      C1426   1.508       .  S
C1420      C1421   1.406       .  A
C1420      H1425   1.084       .  S
C1421      C1422   1.415       .  A
C1422      C1423   1.506       .  S
C1423      H1427   1.111       .  S
C1423      H1428   1.110       .  S
C1423      H1429   1.109       .  S
C1426      H1430   1.110       .  S
C1426      H1431   1.108       .  S
C1426      H1432   1.110       .  S
C1433      C1434   1.404       .  A
C1433      C1438   1.408       .  A
C1433      H1440   1.084       .  S
C1434      C1435   1.411       .  A
C1435      C1436   1.402       .  A
C1435      C1442   1.509       .  S
C1436      C1437   1.405       .  A
C1436      H1441   1.084       .  S
C1437      C1438   1.412       .  A
C1438      C1439   1.505       .  S
C1439      H1443   1.111       .  S
C1439      H1444   1.110       .  S
C1439      H1445   1.110       .  S
C1442      H1446   1.110       .  S
C1442      H1447   1.106       .  S
C1442      H1448   1.111       .  S
C1449      C1450   1.405       .  A
C1449      C1454   1.404       .  A
C1449      H1456   1.084       .  S
C1450      C1451   1.419       .  A
C1451      C1452   1.405       .  A
C1451      C1458   1.505       .  S
C1452      C1453   1.400       .  A
C1452      H1457   1.084       .  S
C1453      C1454   1.410       .  A
C1454      C1455   1.506       .  S
C1455      H1459   1.111       .  S
C1455      H1460   1.109       .  S
C1455      H1461   1.110       .  S
C1458      H1462   1.109       .  S
C1458      H1463   1.108   1_655  S
C1458      H1464   1.111   1_655  S
C1465      C1466   1.407       .  A
C1465      C1470   1.402       .  A
C1465      H1472   1.084       .  S
C1466      C1467   1.421       .  A
C1467      C1468   1.408       .  A
C1467      C1474   1.506   1_655  S
C1468      C1469   1.401       .  A
C1468      H1473   1.084       .  S
C1469      C1470   1.411       .  A
C1470      C1471   1.508       .  S
C1471      H1475   1.111       .  S
C1471      H1476   1.109       .  S
C1471      H1477   1.110       .  S
C1474      H1478   1.109   1_455  S
C1474      H1479   1.108       .  S
C1474      H1480   1.111       .  S
C1481      C1482   1.394       .  A
C1481      C1486   1.397       .  A
C1481      H1488   1.078       .  S
C1482      C1483   1.416       .  A
C1483      C1484   1.413       .  A
C1483      C1490   1.500       .  S
C1484      C1485   1.404       .  A
C1484      H1489   1.084       .  S
C1485      C1486   1.418       .  A
C1486      C1487   1.508       .  S
C1487      H1491   1.110       .  S
C1487      H1492   1.110       .  S
C1487      H1493   1.108       .  S
C1490      H1494   1.104       .  S
C1490      H1495   1.110       .  S
C1490      H1496   1.111       .  S
C1497      C1498   1.405       .  A
C1497      C1502   1.413       .  A
C1497      H1504   1.084       .  S
C1498      C1499   1.407       .  A
C1499      C1500   1.398       .  A
C1499      C1506   1.508       .  S
C1500      C1501   1.408       .  A
C1500      H1505   1.085       .  S
C1501      C1502   1.416       .  A
C1502      C1503   1.505       .  S
C1503      H1507   1.111       .  S
C1503      H1508   1.110       .  S
C1503      H1509   1.109       .  S
C1506      H1510   1.110       .  S
C1506      H1511   1.111       .  S
C1506      H1512   1.111       .  S
C1513      C1514   1.403       .  A
C1513      C1518   1.404       .  A
C1513      H1520   1.085       .  S
C1514      C1515   1.415       .  A
C1515      C1516   1.409       .  A
C1515      C1522   1.506       .  S
C1516      C1517   1.403       .  A
C1516      H1521   1.084       .  S
C1517      C1518   1.411       .  A
C1518      C1519   1.506       .  S
C1519      H1523   1.108       .  S
C1519      H1524   1.110       .  S
C1519      H1525   1.110       .  S
C1522      H1526   1.109       .  S
C1522      H1527   1.109       .  S
C1522      H1528   1.111       .  S
C1529      C1530   1.405       .  A
C1529      C1534   1.406       .  A
C1529      H1536   1.083       .  S
C1530      C1531   1.413       .  A
C1531      C1532   1.401       .  A
C1531      C1538   1.498       .  S
C1532      C1533   1.397       .  A
C1532      H1537   1.085       .  S
C1533      C1534   1.410       .  A
C1534      C1535   1.505       .  S
C1535      H1539   1.111       .  S
C1535      H1540   1.110       .  S
C1535      H1541   1.111       .  S
C1538      H1542   1.103       .  S
C1538      H1543   1.107   1_565  S
C1538      H1544   1.107       .  S
C1545      C1546   1.400       .  A
C1545      C1550   1.400       .  A
C1545      H1552   1.085       .  S
C1546      C1547   1.411       .  A
C1547      C1548   1.409       .  A
C1547      C1554   1.506       .  S
C1548      C1549   1.412       .  A
C1548      H1553   1.083       .  S
C1549      C1550   1.423       .  A
C1550      C1551   1.510       .  S
C1551      H1555   1.111       .  S
C1551      H1556   1.109       .  S
C1551      H1557   1.110       .  S
C1554      H1558   1.110       .  S
C1554      H1559   1.110       .  S
C1554      H1560   1.111   1_455  S
C1561      C1562   1.409       .  A
C1561      C1566   1.406       .  A
C1561      H1568   1.080       .  S
C1562      C1563   1.422       .  A
C1563      C1564   1.403       .  A
C1563      C1570   1.509       .  S
C1564      C1565   1.401       .  A
C1564      H1569   1.085       .  S
C1565      C1566   1.410       .  A
C1566      C1567   1.505       .  S
C1567      H1571   1.111   1_455  S
C1567      H1572   1.108       .  S
C1567      H1573   1.110       .  S
C1570      H1574   1.110       .  S
C1570      H1575   1.109       .  S
C1570      H1576   1.111       .  S
C1577      C1578   1.402       .  A
C1577      C1582   1.411       .  A
C1577      H1584   1.084       .  S
C1578      C1579   1.407       .  A
C1579      C1580   1.399       .  A
C1579      C1586   1.509       .  S
C1580      C1581   1.410       .  A
C1580      H1585   1.084       .  S
C1581      C1582   1.420       .  A
C1582      C1583   1.506       .  S
C1583      H1587   1.111       .  S
C1583      H1588   1.110       .  S
C1583      H1589   1.108       .  S
C1586      H1590   1.109       .  S
C1586      H1591   1.107       .  S
C1586      H1592   1.111       .  S
C1593      C1594   1.406       .  A
C1593      C1598   1.404       .  A
C1593      H1600   1.082       .  S
C1594      C1595   1.417       .  A
C1595      C1596   1.405       .  A
C1595      C1602   1.507       .  S
C1596      C1597   1.402       .  A
C1596      H1601   1.084       .  S
C1597      C1598   1.409       .  A
C1598      C1599   1.506       .  S
C1599      H1603   1.109       .  S
C1599      H1604   1.110       .  S
C1599      H1605   1.110       .  S
C1602      H1606   1.111       .  S
C1602      H1607   1.109       .  S
C1602      H1608   1.111       .  S
