geometry optimzed in LAMMPS
_audit_creation_date              2020-11-30 
_audit_creation_method            'lammps2cif' 
_symmetry_space_group_name_H-M    'P1' 
_symmetry_Int_Tables_number       1 
_symmetry_cell_setting            triclinic 
loop_ 
_symmetry_equiv_pos_as_xyz 
  x,y,z 
_cell_length_a                    31.01451097 
_cell_length_b                    48.26864032530562 
_cell_length_c                    47.64928740603107 
_cell_angle_alpha                 89.73592555416847 
_cell_angle_beta                  90.15713171904578 
_cell_angle_gamma                 90.08671814842002 
loop_ 
_atom_site_label 
_atom_site_type_symbol 
_atom_site_fract_x 
_atom_site_fract_y 
_atom_site_fract_z 
_atom_site_charge 
C1          C  0.99309683  0.48702317  0.02716739     0.02400
C2          C  0.03468136  0.49665612  0.01945815     0.02400
C3          C  0.03798718  0.01759497  0.49926292     0.02400
C4          C  0.50252736  0.02596035  0.48295385     0.02400
C5          C  0.46089916  0.01657931  0.49032693     0.02400
C6          C  0.45579406  0.49429481  0.01158718     0.02400
Fe7        Fe  0.44739110  0.11980019  0.34354074     1.65800
Fe8        Fe  0.05521792  0.12989817  0.34222313     1.73200
Fe9        Fe  0.49960496  0.11918496  0.28033575     1.54400
O10         O  0.45707794  0.08600866  0.28014106    -0.81500
O11         O  0.07593020  0.15890947  0.31397222    -0.79800
O12         O  0.42239528  0.08735552  0.32065974    -0.84000
O13         O  0.41678454  0.14884243  0.31847567    -0.78900
O14         O  0.05023918  0.09122431  0.28114537    -0.80600
O15         O  0.03021086  0.16214603  0.36569842    -0.83400
C16         C  0.42115288  0.15675465  0.29314473     0.97400
C17         C  0.42857954  0.07681913  0.29674883     1.04800
O18         O  0.00048451  0.12221169  0.32242055    -1.12400
O19         O  0.04257091  0.10266239  0.37399476    -0.74800
O20         O  0.47391063  0.09137808  0.37100161    -0.78300
O21         O  0.44965750  0.14708412  0.27672707    -0.79000
C22         C  0.01061292  0.08883992  0.38256622     0.96300
O23         O  0.46314000  0.15087606  0.37075552    -0.76900
O24         O  0.08598375  0.09797985  0.32137840    -0.82100
C25         C  0.06781945  0.16502815  0.28874016     0.98900
C26         C  0.08047027  0.08539275  0.29824844     1.04800
O27         O  0.04015080  0.15200143  0.27424349    -0.77800
C28         C  0.49522115  0.16571215  0.37704255     1.03100
C29         C  0.49452217  0.23770866  0.47404852     0.02400
C30         C  0.03575291  0.24326243  0.48567331     0.02400
C31         C  0.03794120  0.26183695  0.00808074     0.02400
C32         C  0.50148264  0.27316923  0.02143168     0.02400
C33         C  0.46038684  0.26795760  0.00944677     0.02400
C34         C  0.45648713  0.24990100  0.48512761     0.02400
Fe35       Fe  0.44542985  0.36965208  0.16135357     1.65800
Fe36       Fe  0.05318357  0.37900668  0.15984544     1.73200
Fe37       Fe  0.50098352  0.36897274  0.22395952     1.54400
O38         O  0.44916479  0.39558452  0.22809271    -0.81500
O39         O  0.08478044  0.34733239  0.18131915    -0.79800
O40         O  0.41818282  0.39990331  0.18580347    -0.84000
O41         O  0.42091737  0.33851298  0.18610272    -0.78900
O42         O  0.04125445  0.40450916  0.22728964    -0.80600
O43         O  0.03689557  0.35109518  0.12939918    -0.83400
C44         C  0.42918611  0.32631409  0.20903706     0.97400
C45         C  0.42188385  0.40654604  0.21145861     1.04800
O46         O  0.99950558  0.37290689  0.18101841    -1.12400
O47         O  0.02820847  0.41091709  0.13526359    -0.74800
O48         O  0.46020839  0.39960234  0.13200368    -0.78300
O49         O  0.45968590  0.33423573  0.22510392    -0.79000
C50         C  0.99149697  0.41398531  0.12378701     0.96300
O51         O  0.46856863  0.33972743  0.13473281    -0.76900
O52         O  0.07596854  0.40849544  0.18679047    -0.82100
C53         C  0.08175835  0.33614233  0.20547798     0.98900
C54         C  0.06850907  0.41663389  0.21148374     1.04800
O55         O  0.05285713  0.34287128  0.22304519    -0.77800
C56         C  0.50501530  0.33754157  0.12287571     1.03100
C57         C  0.25407349  0.01468939  0.27823620     0.02400
C58         C  0.21276544  0.00711846  0.26738411     0.02400
C59         C  0.20872544  0.48434533  0.24870834     0.02400
C60         C  0.24652144  0.47192097  0.23768741     0.02400
C61         C  0.28749047  0.47919897  0.24875379     0.02400
C62         C  0.29199322  0.00140908  0.26839642     0.02400
Fe63       Fe  0.29957072  0.38368081  0.09160051     1.65800
Fe64       Fe  0.19165001  0.37332257  0.09116274     1.73200
Fe65       Fe  0.24530477  0.37966290  0.02866568     1.54400
O66         O  0.28467889  0.41446305  0.02623160    -0.81500
O67         O  0.16693950  0.34493676  0.06311635    -0.79800
O68         O  0.32294067  0.41433649  0.06582820    -0.84000
O69         O  0.32978617  0.35309748  0.06849235    -0.78900
O70         O  0.19179768  0.40574916  0.02720638    -0.80600
O71         O  0.21630715  0.34047734  0.11341204    -0.83400
C72         C  0.32698431  0.34485722  0.04323894     0.97400
C73         C  0.31426047  0.42419156  0.04183645     1.04800
O74         O  0.24557491  0.37894536  0.07033097    -1.12400
O75         O  0.20780933  0.39966088  0.12397808    -0.74800
O76         O  0.27492967  0.41439286  0.11716058    -0.78300
O77         O  0.29870984  0.35375201  0.02600935    -0.79000
C78         C  0.23991370  0.41451228  0.13088059     0.96300
O79         O  0.28398378  0.35403868  0.12106079    -0.76900
O80         O  0.16310168  0.40607124  0.07032906    -0.82100
C81         C  0.17588215  0.33507312  0.03926862     0.98900
C82         C  0.16498523  0.41487666  0.04515339     1.04800
O83         O  0.20630524  0.34473398  0.02440892    -0.77800
C84         C  0.25208430  0.33845349  0.12618917     1.03100
C85         C  0.24541439  0.21905025  0.25935078     0.02400
C86         C  0.28665334  0.22713659  0.24926344     0.02400
C87         C  0.29041639  0.24780897  0.22819430     0.02400
C88         C  0.25195557  0.25819749  0.21547598     0.02400
C89         C  0.21045026  0.25029668  0.22543676     0.02400
C90         C  0.20751263  0.22931701  0.24616156     0.02400
Fe91       Fe  0.30206885  0.13533181  0.40758463     1.65800
Fe92       Fe  0.19456497  0.12291860  0.40850590     1.73200
Fe93       Fe  0.24903158  0.13156922  0.47067036     1.54400
O94         O  0.30274641  0.10571895  0.47361984    -0.81500
O95         O  0.16467326  0.15561395  0.42857074    -0.79800
O96         O  0.33300172  0.10479383  0.43094970    -0.84000
O97         O  0.32594612  0.16618307  0.43310357    -0.78900
O98         O  0.20945945  0.09706911  0.47638592    -0.80600
O99         O  0.21005741  0.14905891  0.37517215    -0.83400
C100        C  0.31769861  0.17629126  0.45693753     0.97400
C101        C  0.33083297  0.09671161  0.45642413     1.04800
O102        O  0.24855181  0.12989460  0.42910932    -1.12400
O103        O  0.22050066  0.08995491  0.38682455    -0.74800
O104        O  0.28647588  0.10587919  0.37756152    -0.78300
O105        O  0.28810070  0.16657971  0.47243105    -0.79000
C106        C  0.25546380  0.08926951  0.37301054     0.96300
O107        O  0.27582042  0.16608322  0.38239561    -0.76900
O108        O  0.16996383  0.09488300  0.43749009    -0.82100
C109        C  0.16734191  0.16526300  0.45334213     0.98900
C110        C  0.17870105  0.08677238  0.46220415     1.04800
O111        O  0.19547798  0.15742333  0.47123491    -0.77800
C112        C  0.24106793  0.16491376  0.36834024     1.03100
C113        C  0.24757552  0.22057694  0.31159703    -0.12100
C114        C  0.24210527  0.20458969  0.28719508     0.04900
C115        C  0.23230256  0.17614453  0.29013753    -0.07400
C116        C  0.22961312  0.16431734  0.31703763    -0.08100
C117        C  0.23827787  0.17989174  0.34122316    -0.02700
C118        C  0.24691793  0.20839795  0.33841179     0.04100
N119        N  0.25413294  0.22532648  0.36250591     0.66600
H120        H  0.25363735  0.24262822  0.30970053     0.15500
H121        H  0.22309930  0.14231805  0.31897068     0.15200
N122        N  0.22680854  0.15864058  0.26627942     0.74300
O123        O  0.29136584  0.22667392  0.37315042    -0.39100
O124        O  0.22606388  0.24287622  0.36947583    -0.39100
O125        O  0.25903166  0.15322381  0.25121676    -0.39800
O126        O  0.19397839  0.14322771  0.26473748    -0.39800
C127        C  0.26833936  0.30493001  0.19700520    -0.12100
C128        C  0.25451092  0.27784700  0.19161374     0.04900
C129        C  0.24310725  0.27004480  0.16379995    -0.07400
C130        C  0.24196661  0.29061789  0.14294296    -0.08100
C131        C  0.25630340  0.31751143  0.14837413    -0.02700
C132        C  0.27164236  0.32437959  0.17536939     0.04100
N133        N  0.29022394  0.35092947  0.18127501     0.66600
H134        H  0.27789604  0.31070528  0.21807995     0.15500
H135        H  0.23148499  0.28549440  0.12187851     0.15200
N136        N  0.23532791  0.24159328  0.15581469     0.74300
O137        O  0.27729418  0.36442207  0.20223555    -0.39100
O138        O  0.32585316  0.35738560  0.17028030    -0.39100
O139        O  0.24478626  0.22183532  0.17203921    -0.39800
O140        O  0.22352263  0.23587367  0.13111040    -0.39800
C141        C  0.22348315  0.41686318  0.18167996    -0.12100
C142        C  0.23760785  0.43059215  0.15731599     0.04900
C143        C  0.25346902  0.45791379  0.15956984    -0.07400
C144        C  0.25637728  0.47029772  0.18612531    -0.08100
C145        C  0.24446472  0.45608902  0.21069934    -0.02700
C146        C  0.22748587  0.42902711  0.20829477     0.04100
N147        N  0.21501873  0.41332560  0.23245374     0.66600
H148        H  0.21127269  0.39586405  0.18019999     0.15500
H149        H  0.26701366  0.49163379  0.18765457     0.15200
N150        N  0.26433230  0.47389093  0.13512512     0.74300
O151        O  0.17813299  0.40228756  0.23308372    -0.39100
O152        O  0.24384052  0.40431260  0.24879637    -0.39100
O153        O  0.24125248  0.47218087  0.11333931    -0.39800
O154        O  0.29234718  0.49283903  0.13669636    -0.39800
C155        C  0.24813901  0.02431826  0.32886183    -0.12100
C156        C  0.25704192  0.03476863  0.30195786     0.04900
C157        C  0.26977804  0.06292165  0.29895462    -0.07400
C158        C  0.27063100  0.07981486  0.32298668    -0.08100
C159        C  0.25945587  0.06949265  0.34958477    -0.02700
C160        C  0.24941092  0.04120293  0.35270782     0.04100
N161        N  0.24281157  0.02902068  0.37993628     0.66600
H162        H  0.24095230  0.00245451  0.33129438     0.15500
H163        H  0.27871273  0.10157169  0.32085304     0.15200
N164        N  0.28205066  0.07482404  0.27229852     0.74300
O165        O  0.21986249  0.00753645  0.38250099    -0.39100
O166        O  0.26504138  0.03702674  0.40061563    -0.39100
O167        O  0.27278636  0.06306150  0.24951799    -0.39800
O168        O  0.30259225  0.09742173  0.27139078    -0.39800
C169        C  0.17346503  0.29409443  0.23830057    -0.12100
C170        C  0.17356040  0.27027607  0.22136749     0.04900
C171        C  0.14081087  0.26771005  0.20074539    -0.07400
C172        C  0.11179159  0.28958938  0.19607473    -0.08100
C173        C  0.11222954  0.31343372  0.21269654    -0.02700
C174        C  0.14254404  0.31522085  0.23484528     0.04100
N175        N  0.14310168  0.33837168  0.25363683     0.66600
H176        H  0.19770098  0.29613949  0.25459946     0.15500
H177        H  0.08774841  0.28757599  0.17963903     0.15200
N178        N  0.13372686  0.24266245  0.18568814     0.74300
O179        O  0.10924674  0.34500740  0.26659140    -0.39100
O180        O  0.17866851  0.34850098  0.26148262    -0.39100
O181        O  0.10151714  0.22821184  0.19264039    -0.39800
O182        O  0.14627171  0.24143910  0.16060328    -0.39800
C183        C  0.38678223  0.28507395  0.19417819    -0.12100
C184        C  0.40099236  0.30210583  0.21619543     0.04900
C185        C  0.38293563  0.29795564  0.24301431    -0.07400
C186        C  0.34897957  0.27878143  0.24666671    -0.08100
C187        C  0.33291368  0.26282554  0.22416744    -0.02700
C188        C  0.35382409  0.26535980  0.19785493     0.04100
N189        N  0.34184842  0.24860099  0.17440065     0.66600
H190        H  0.40096316  0.28752184  0.17354280     0.15500
H191        H  0.33339340  0.27749011  0.26695210     0.15200
N192        N  0.39618965  0.31459368  0.26620188     0.74300
O193        O  0.33615012  0.25989663  0.15074035    -0.39100
O194        O  0.34953146  0.22300851  0.17531891    -0.39100
O195        O  0.37295528  0.33453693  0.27403474    -0.39800
O196        O  0.42759524  0.30696395  0.28123165    -0.39800
C197        C  0.37107342  0.42169151  0.24810010    -0.12100
C198        C  0.39187656  0.42726117  0.22267012     0.04900
C199        C  0.38109731  0.45126164  0.20733036    -0.07400
C200        C  0.34825147  0.46852810  0.21692410    -0.08100
C201        C  0.32539245  0.46207299  0.24144629    -0.02700
C202        C  0.33750698  0.43859488  0.25777042     0.04100
N203        N  0.31630018  0.43116488  0.28372888     0.66600
H204        H  0.37955225  0.40313037  0.25973578     0.15500
H205        H  0.33814681  0.98584972  0.20315441     0.15200
N206        N  0.40371985  0.45851902  0.18222152     0.74300
O207        O  0.27863583  0.43929443  0.28915743    -0.39100
O208        O  0.33493347  0.41545316  0.30120702    -0.39100
O209        O  0.38379882  0.45992868  0.15913611    -0.39800
O210        O  0.42840027  0.97039361  0.17603948    -0.39800
C211        C  0.10488077  0.44181559  0.25093507    -0.12100
C212        C  0.09511797  0.44014558  0.22218707     0.04900
C213        C  0.11710389  0.45808467  0.20342372    -0.07400
C214        C  0.15166841  0.47414586  0.21299080    -0.08100
C215        C  0.16543848  0.47278136  0.24098939    -0.02700
C216        C  0.14018293  0.45760003  0.26050008     0.04100
N217        N  0.15205289  0.45583149  0.28955814     0.66600
H218        H  0.08806726  0.42854922  0.26569996     0.15500
H219        H  0.16954772  0.48655400  0.19801279     0.15200
N220        N  0.10596278  0.45936425  0.17428025     0.74300
O221        O  0.12343031  0.45766729  0.30823678    -0.39100
O222        O  0.18951831  0.44823984  0.29646555    -0.39100
O223        O  0.07074062  0.47019738  0.16678686    -0.39800
O224        O  0.13324142  0.45260736  0.15594041    -0.39800
C225        C  0.10514090  0.17869356  0.48260574    -0.12100
C226        C  0.13538528  0.18599291  0.46211073     0.04900
C227        C  0.13430705  0.21273968  0.45021831    -0.07400
C228        C  0.10362793  0.23199732  0.45939446    -0.08100
C229        C  0.07234369  0.22440492  0.47922828    -0.02700
C230        C  0.07329650  0.19745084  0.49090898     0.04100
N231        N  0.04096776  0.18801293  0.01193882     0.66600
H232        H  0.10599799  0.15793700  0.99315569     0.15500
H233        H  0.10311224  0.25248481  0.45011259     0.15200
N234        N  0.16356545  0.22033073  0.42839064     0.74300
O235        O  0.04536052  0.19439139  0.03739825    -0.39100
O236        O  0.01292772  0.17030729  0.00514216    -0.39100
O237        O  0.15595818  0.21303566  0.40346420    -0.39800
O238        O  0.19431737  0.23671523  0.43344974    -0.39800
C239        C  0.35950750  0.21943086  0.44706044    -0.12100
C240        C  0.34531242  0.19961949  0.46680800     0.04900
C241        C  0.36343920  0.20003555  0.49411938    -0.07400
C242        C  0.39818541  0.21785628  0.49980320    -0.08100
C243        C  0.41365456  0.23668567  0.47966079    -0.02700
C244        C  0.39245258  0.23843336  0.45354775     0.04100
N245        N  0.40477838  0.25886018  0.43327356     0.66600
H246        H  0.34538644  0.21980168  0.42623393     0.15500
H247        H  0.41273627  0.21402242  0.02238137     0.15200
N248        N  0.34616923  0.18014363  0.01726593     0.74300
O249        O  0.41368176  0.25170161  0.40852122    -0.39100
O250        O  0.39872768  0.28413529  0.43857929    -0.39100
O251        O  0.37285435  0.16742336  0.03264630    -0.39800
O252        O  0.30727924  0.18130237  0.02489167    -0.39800
C253        C  0.13303545  0.29229959  0.04851686    -0.12100
C254        C  0.14856795  0.31175997  0.02896778     0.04900
C255        C  0.13310706  0.31047634  0.00111849    -0.07400
C256        C  0.09915371  0.29232838  0.99435679    -0.08100
C257        C  0.08140499  0.27419708  0.01445857    -0.02700
C258        C  0.10070735  0.27313988  0.04137957     0.04100
N259        N  0.08754936  0.25322582  0.06191448     0.66600
H260        H  0.14553626  0.29233473  0.06978504     0.15500
H261        H  0.08479720  0.29360671  0.97363707     0.15200
N262        N  0.14919969  0.32881666  0.97997075     0.79900
O263        O  0.10236372  0.22899422  0.06016217    -0.39100
O264        O  0.07423643  0.26152825  0.08542036    -0.39100
O265        O  0.18455873  0.32340060  0.96817746    -0.39800
O266        O  0.12454461  0.34674810  0.96923997    -0.39800
C267        C  0.39108810  0.27836895  0.03507577    -0.12100
C268        C  0.42359340  0.28679740  0.01637286     0.04900
C269        C  0.42341786  0.31442881  0.00628633    -0.07400
C270        C  0.39094403  0.33277639  0.01474287    -0.08100
C271        C  0.35866841  0.32430026  0.03338226    -0.02700
C272        C  0.35888978  0.29691014  0.04374949     0.04100
N273        N  0.32680423  0.28779725  0.06327053     0.66600
H274        H  0.39101820  0.25750343  0.04338561     0.15500
H275        H  0.39134079  0.35396086  0.00708628     0.15200
N276        N  0.45661811  0.32434310  0.98793383     0.74300
O277        O  0.28740350  0.28835637  0.05658540    -0.39100
O278        O  0.33774897  0.27974824  0.08749101    -0.39100
O279        O  0.46277712  0.31278809  0.96461202    -0.39800
O280        O  0.47637708  0.34653173  0.99350350    -0.39800
C281        C  0.02452613  0.31519390  0.04675286    -0.12100
C282        C  0.50383468  0.28899994  0.04803717     0.04900
C283        C  0.48441246  0.27878026  0.07296312    -0.07400
C284        C  0.48532253  0.29514779  0.09712608    -0.08100
C285        C  0.50855012  0.31999620  0.09783293    -0.02700
C286        C  0.02936417  0.32993020  0.07175908     0.04100
N287        N  0.05717010  0.35380108  0.07192988     0.66600
H288        H  0.03966979  0.32295650  0.02783763     0.15500
H289        H  0.46902524  0.28801482  0.11591757     0.15200
N290        N  0.46464860  0.25177879  0.07439171     0.74300
O291        O  0.08896563  0.35437469  0.08848424    -0.39100
O292        O  0.05698307  0.37027653  0.05128505    -0.39100
O293        O  0.48040813  0.23171010  0.06104666    -0.39800
O294        O  0.43475720  0.24706153  0.09172109    -0.39800
C295        C  0.14676641  0.22410436  0.27966789    -0.12100
C296        C  0.16509084  0.21706705  0.25381050     0.04900
C297        C  0.14587501  0.19571412  0.23755270    -0.07400
C298        C  0.10992815  0.18152697  0.24816053    -0.08100
C299        C  0.09478417  0.18654649  0.27527734    -0.02700
C300        C  0.11242166  0.20874940  0.29073767     0.04100
N301        N  0.09710861  0.21508246  0.31824248     0.66600
H302        H  0.16104390  0.24047793  0.29212086     0.15500
H303        H  0.09693730  0.16422308  0.23642596     0.15200
N304        N  0.16408564  0.18643305  0.21148190     0.74300
O305        O  0.12117972  0.21123856  0.33929695    -0.39100
O306        O  0.06130194  0.22707393  0.32122304    -0.39100
O307        O  0.20428087  0.18410679  0.20892070    -0.39800
O308        O  0.14013214  0.17583292  0.19292032    -0.39800
C309        C  0.37562464  0.17305411  0.25414012    -0.12100
C310        C  0.39042110  0.17707768  0.28151938     0.04900
C311        C  0.37444253  0.19948556  0.29716035    -0.07400
C312        C  0.34271591  0.21671200  0.28551837    -0.08100
C313        C  0.32537030  0.21139643  0.25879068    -0.02700
C314        C  0.34298002  0.18951577  0.24253639     0.04100
N315        N  0.32760659  0.18268022  0.21485137     0.66600
H316        H  0.38798061  0.15576323  0.24218673     0.15500
H317        H  0.33075698  0.23389717  0.29773924     0.15200
N318        N  0.39067066  0.20527158  0.32461311     0.74300
O319        O  0.35126324  0.16922291  0.19824002    -0.39100
O320        O  0.28936819  0.18767288  0.20758886    -0.39100
O321        O  0.42215530  0.22159534  0.32756512    -0.39800
O322        O  0.37044029  0.19681585  0.34594235    -0.39800
C323        C  0.38441619  0.03513336  0.30844540    -0.12100
C324        C  0.40021169  0.05348641  0.28796783     0.04900
C325        C  0.38650240  0.05006110  0.25989290    -0.07400
C326        C  0.35442227  0.03047271  0.25349869    -0.08100
C327        C  0.33538185  0.01405886  0.27456563    -0.02700
C328        C  0.35325420  0.01501843  0.30189879     0.04100
N329        N  0.34746803  0.49095421  0.31958423     0.66600
H330        H  0.39649780  0.03638374  0.32976729     0.15500
H331        H  0.34154605  0.02989475  0.23234560     0.15200
N332        N  0.40173972  0.06798912  0.23808277     0.74300
O333        O  0.33262309  0.49662490  0.34348542    -0.39100
O334        O  0.36817486  0.46869318  0.31667401    -0.39100
O335        O  0.42451214  0.05834747  0.21852958    -0.39800
O336        O  0.38960961  0.09292455  0.23709146    -0.39800
C337        C  0.12571007  0.06246502  0.26252276    -0.12100
C338        C  0.11127357  0.06348691  0.29031791     0.04900
C339        C  0.12644551  0.04359488  0.30972202    -0.07400
C340        C  0.15687928  0.02390731  0.30126879    -0.08100
C341        C  0.17434260  0.02450267  0.27410629    -0.02700
C342        C  0.15713367  0.04342328  0.25427747     0.04100
N343        N  0.17109778  0.04389795  0.22570106     0.66600
H344        H  0.11365464  0.07726854  0.24723725     0.15500
H345        H  0.16779483  0.00858042  0.31629518     0.15200
N346        N  0.11082225  0.04284766  0.33791045     0.74300
O347        O  0.14464510  0.03687158  0.20687200    -0.39100
O348        O  0.20214021  0.05939974  0.21894208    -0.39100
O349        O  0.08428746  0.02432186  0.34513790    -0.39800
O350        O  0.12925099  0.05718793  0.35650331    -0.39800
C351        C  0.01221727  0.20960043  0.39987013    -0.12100
C352        C  0.49076694  0.18533054  0.40070569     0.04900
C353        C  0.46721840  0.17823020  0.42523727    -0.07400
C354        C  0.47098370  0.19483121  0.44911085    -0.08100
C355        C  0.49260161  0.22030201  0.44821326    -0.02700
C356        C  0.01170207  0.22834558  0.42237730     0.04100
N357        N  0.03088380  0.25535445  0.41865385     0.66600
H358        H  0.02961827  0.21487871  0.38089441     0.15500
H359        H  0.45565304  0.18814626  0.46834869     0.15200
N360        N  0.43900072  0.15459571  0.42636895     0.74300
O361        O  0.05897065  0.25927076  0.39989909    -0.39100
O362        O  0.01651325  0.27604710  0.43172227    -0.39100
O363        O  0.43890995  0.13922257  0.44786062    -0.39800
O364        O  0.40696347  0.15360900  0.41002639    -0.39800
C365        C  0.36795712  0.05152305  0.45005717    -0.12100
C366        C  0.36200487  0.07541186  0.46619104     0.04900
C367        C  0.38688387  0.07878562  0.49074826    -0.07400
C368        C  0.41708165  0.05850623  0.49851499    -0.08100
C369        C  0.42325403  0.03451325  0.48242093    -0.02700
C370        C  0.39788362  0.03105478  0.45792773     0.04100
N371        N  0.40094517  0.00695204  0.44088370     0.66600
H372        H  0.34893511  0.04860510  0.43117411     0.15500
H373        H  0.43126062  0.05845849  0.01971675     0.15200
N374        N  0.37818873  0.10020101  0.01078851     0.74300
O375        O  0.37410009  0.98775151  0.44512053    -0.39100
O376        O  0.41684185  0.00946238  0.41665451    -0.39100
O377        O  0.35448602  0.10647845  0.52447498    -0.39800
O378        O  0.41080878  0.11483805  0.01642544    -0.39800
C379        C  0.12614004  0.07320518  0.49929783    -0.12100
C380        C  0.14961152  0.06584696  0.47533523     0.04900
C381        C  0.13939671  0.04078841  0.46177711    -0.07400
C382        C  0.10530446  0.02419392  0.47148601    -0.08100
C383        C  0.07965147  0.03250949  0.49409015    -0.02700
C384        C  0.09053638  0.05735273  0.50844592     0.04100
N385        N  0.06737667  0.06450447  0.03156492     0.66600
H386        H  0.13315626  0.09274084  0.50947770     0.15500
H387        H  0.09753391  0.00525003  0.46048689     0.15200
N388        N  0.16338935  0.03197794  0.43795874     0.74300
O389        O  0.08621811  0.07724220  0.05118825    -0.39100
O390        O  0.02674803  0.06321779  0.03162808    -0.39100
O391        O  0.20157658  0.02362547  0.44130311    -0.39800
O392        O  0.14437516  0.02793097  0.41488852    -0.39800
C393        C  0.51447397  0.04530076  0.40619456    -0.12100
C394        C  0.01610592  0.07260933  0.40814590     0.04900
C395        C  0.01705324  0.08569711  0.43463512    -0.07400
C396        C  0.00980706  0.06961514  0.45862474    -0.08100
C397        C  0.00742342  0.04079132  0.45684150    -0.02700
C398        C  0.51286554  0.02915126  0.43056942     0.04100
N399        N  0.51641334  0.49849206  0.42791602     0.66600
H400        H  0.51436126  0.03535996  0.38592127     0.15500
H401        H  0.00760577  0.07945106  0.47888660     0.15200
N402        N  0.02652783  0.11476336  0.43764740     0.74300
O403        O  0.48632044  0.48262868  0.43544182    -0.39100
O404        O  0.54796149  0.48854591  0.41468348    -0.39100
O405        O  0.01361509  0.12755221  0.45906263    -0.39800
O406        O  0.05597354  0.12569886  0.42309124    -0.39800
C407        C  0.39049106  0.48535480  0.04016589    -0.12100
C408        C  0.41448195  0.47932597  0.01614418     0.04900
C409        C  0.40165369  0.45681369  0.99881686    -0.07400
C410        C  0.36472535  0.44146502  0.00594349    -0.08100
C411        C  0.34284079  0.44626957  0.03105557    -0.02700
C412        C  0.35566165  0.46863051  0.04804861     0.04100
N413        N  0.33429670  0.47409906  0.07385084     0.66600
H414        H  0.39594638  0.00417266  0.05304601     0.15500
H415        H  0.35605052  0.42353128  0.99352472     0.15200
N416        N  0.42795358  0.44708674  0.97603157     0.74300
O417        O  0.34662951  0.96687811  0.09614803    -0.39100
O418        O  0.30098295  0.48903664  0.07365845    -0.39100
O419        O  0.46844879  0.44681282  0.97837417    -0.39800
O420        O  0.41582269  0.43471040  0.45659616    -0.39800
C421        C  0.08028747  0.45872617  0.50929663    -0.12100
C422        C  0.07221168  0.47816813  0.02517939     0.04900
C423        C  0.10110217  0.48136506  0.04790906    -0.07400
C424        C  0.13120009  0.46048134  0.05386207    -0.08100
C425        C  0.13472772  0.43702931  0.03679628    -0.02700
C426        C  0.10770230  0.43461867  0.01313254     0.04100
N427        N  0.11358597  0.41521716  0.49573505     0.66600
H428        H  0.06109605  0.45755260  0.49029383     0.15500
H429        H  0.15257263  0.46283202  0.07174348     0.15200
N430        N  0.10222978  0.50593647  0.06438608     0.74300
O431        O  0.08278350  0.39818103  0.49411145    -0.39100
O432        O  0.14213057  0.41544336  0.47692405    -0.39100
O433        O  0.09384327  0.50406407  0.09021239    -0.39800
O434        O  0.08683671  0.02112327  0.07166234    -0.39800
C435        C  0.49947352  0.46068199  0.10340146    -0.12100
C436        C  0.98691243  0.43321921  0.09971148     0.04900
C437        C  0.97419679  0.42352801  0.07292387    -0.07400
C438        C  0.97780111  0.44117539  0.04961854    -0.08100
C439        C  0.98862217  0.46918388  0.05272899    -0.02700
C440        C  0.49731962  0.47927050  0.08046465     0.04100
N441        N  0.50157715  0.50863684  0.08553654     0.66600
H442        H  0.50791096  0.46822774  0.12406802     0.15500
H443        H  0.97100479  0.43307893  0.02897784     0.15200
N444        N  0.95738205  0.39605647  0.06893346     0.74300
O445        O  0.48576707  0.52604940  0.06857524    -0.39100
O446        O  0.51486806  0.51719944  0.10903318    -0.39100
O447        O  0.92401509  0.38864818  0.08209982    -0.39800
O448        O  0.96839329  0.38235975  0.04763806    -0.39800
C449        C  0.99346831  0.48869629  0.53000906     0.02400
C450        C  0.03512714  0.49833148  0.52249322     0.02400
C451        C  0.03828924  0.01595070  0.99804245     0.02400
C452        C  0.50029524  0.02377368  0.98332164     0.02400
C453        C  0.45847946  0.01502570  0.99112954     0.02400
C454        C  0.45640667  0.49656924  0.51191311     0.02400
Fe455      Fe  0.44643304  0.11879780  0.84479022     1.65800
Fe456      Fe  0.05457209  0.13063391  0.84250758     1.73200
Fe457      Fe  0.49963863  0.11876530  0.78193134     1.54400
O458        O  0.45807657  0.08506719  0.78119701    -0.81500
O459        O  0.07740282  0.15919388  0.81410244    -0.79800
O460        O  0.42135488  0.08700989  0.82097379    -0.84000
O461        O  0.41669819  0.14873909  0.82017078    -0.78900
O462        O  0.05218991  0.09235603  0.78130929    -0.80600
O463        O  0.02901312  0.16334180  0.86510405    -0.83400
C464        C  0.42118020  0.15637425  0.79474722     0.97400
C465        C  0.42862361  0.07622153  0.79730641     1.04800
O466        O  0.00062653  0.12317076  0.82180052    -1.12400
O467        O  0.03950775  0.10378137  0.87454161    -0.74800
O468        O  0.47243989  0.08964957  0.87175176    -0.78300
O469        O  0.44919992  0.14612646  0.77839946    -0.79000
C470        C  0.00729478  0.08949586  0.88207045     0.96300
O471        O  0.46183857  0.14909838  0.87299214    -0.76900
O472        O  0.08564928  0.09821816  0.82246995    -0.82100
C473        C  0.06973477  0.16552740  0.78880641     0.98900
C474        C  0.08137878  0.08601856  0.79899472     1.04800
O475        O  0.04163132  0.15300806  0.77419278    -0.77800
C476        C  0.49416509  0.16344041  0.87985580     1.03100
C477        C  0.49368857  0.23556127  0.97670354     0.02400
C478        C  0.03336031  0.24219634  0.98633748     0.02400
C479        C  0.04018354  0.26314283  0.50709347     0.02400
C480        C  0.50100936  0.27593413  0.51837388     0.02400
C481        C  0.46025463  0.27045364  0.50599542     0.02400
C482        C  0.45601094  0.24780702  0.98824955     0.02400
Fe483      Fe  0.44565259  0.37119128  0.66015326     1.65800
Fe484      Fe  0.05397851  0.37652133  0.66028056     1.73200
Fe485      Fe  0.50225042  0.37051130  0.72241222     1.54400
O486        O  0.45225318  0.39829414  0.72698954    -0.81500
O487        O  0.08833116  0.34907460  0.68562640    -0.79800
O488        O  0.41724212  0.39972269  0.68595047    -0.84000
O489        O  0.42326417  0.33849108  0.68367874    -0.78900
O490        O  0.04697307  0.40047384  0.72688451    -0.80600
O491        O  0.04138284  0.34404084  0.63426015    -0.83400
C492        C  0.43016658  0.32760460  0.70748085     0.97400
C493        C  0.42291461  0.40775621  0.71097873     1.04800
O494        O  0.99975074  0.37149390  0.68107635    -1.12400
O495        O  0.02811890  0.40384304  0.63062749    -0.74800
O496        O  0.45902757  0.40303697  0.63284393    -0.78300
O497        O  0.45897301  0.33683489  0.72415054    -0.79000
C498        C  0.99078173  0.41236780  0.62375481     0.96300
O499        O  0.46857400  0.34312661  0.63142143    -0.76900
O500        O  0.07173119  0.40985529  0.68411549    -0.82100
C501        C  0.08125186  0.33477519  0.70759706     0.98900
C502        C  0.06950668  0.41523405  0.71006136     1.04800
O503        O  0.04810263  0.33823056  0.72278599    -0.77800
C504        C  0.50540807  0.33938774  0.62054288     1.03100
C505        C  0.25446413  0.01438039  0.77858994     0.02400
C506        C  0.21293888  0.00680540  0.76803639     0.02400
C507        C  0.20902932  0.48423834  0.74819254     0.02400
C508        C  0.24718758  0.47219660  0.73730336     0.02400
C509        C  0.28790489  0.47951849  0.74868593     0.02400
C510        C  0.29220226  0.00116688  0.76842015     0.02400
Fe511      Fe  0.30193247  0.38451043  0.59030126     1.65800
Fe512      Fe  0.19416049  0.37325650  0.59141923     1.73200
Fe513      Fe  0.24530844  0.38197956  0.52823657     1.54400
O514        O  0.28480116  0.41662305  0.52574144    -0.81500
O515        O  0.16890244  0.34524680  0.56319366    -0.79800
O516        O  0.32441004  0.41569297  0.56474171    -0.84000
O517        O  0.33125175  0.35459268  0.56590254    -0.78900
O518        O  0.19198678  0.40813924  0.52864426    -0.80600
O519        O  0.22031775  0.34023035  0.61271096    -0.83400
C520        C  0.32733181  0.34691266  0.54051417     0.97400
C521        C  0.31511917  0.42587435  0.54098343     1.04800
O522        O  0.24718112  0.37999299  0.56983820    -1.12400
O523        O  0.21106622  0.39918456  0.62428554    -0.74800
O524        O  0.27774663  0.41457593  0.61683945    -0.78300
O525        O  0.29833521  0.35608865  0.52397597    -0.79000
C526        C  0.24302235  0.41427395  0.63090067     0.96300
O527        O  0.28787921  0.35425640  0.61959615    -0.76900
O528        O  0.16385810  0.40609117  0.57188102    -0.82100
C529        C  0.17685402  0.33666665  0.53868936     0.98900
C530        C  0.16518626  0.41610683  0.54716380     1.04800
O531        O  0.20616647  0.34736018  0.52367241    -0.77800
C532        C  0.25641814  0.33843103  0.62513082     1.03100
C533        C  0.24800476  0.21959154  0.75934629     0.02400
C534        C  0.28928537  0.22781544  0.74946490     0.02400
C535        C  0.29316877  0.24836596  0.72823854     0.02400
C536        C  0.25480637  0.25865463  0.71525617     0.02400
C537        C  0.21324453  0.25067537  0.72517467     0.02400
C538        C  0.21020056  0.22969456  0.74595374     0.02400
Fe539      Fe  0.30231473  0.13530305  0.90825046     1.65800
Fe540      Fe  0.19452676  0.12287056  0.90778664     1.73200
Fe541      Fe  0.24728783  0.13107029  0.97064679     1.54400
O542        O  0.30068213  0.10505140  0.97418422    -0.81500
O543        O  0.16349942  0.15515900  0.92804873    -0.79800
O544        O  0.33285512  0.10495340  0.93216961    -0.84000
O545        O  0.32498908  0.16639114  0.93403948    -0.78900
O546        O  0.20763340  0.09658043  0.97551880    -0.80600
O547        O  0.21055732  0.14949323  0.87494151    -0.83400
C548        C  0.31625066  0.17606562  0.95801028     0.97400
C549        C  0.32962324  0.09639576  0.95744071     1.04800
O550        O  0.24802089  0.12976903  0.92904274    -1.12400
O551        O  0.22131701  0.09025494  0.88594729    -0.74800
O552        O  0.28811394  0.10560009  0.87818710    -0.78300
O553        O  0.28650777  0.16597640  0.97315908    -0.79000
C554        C  0.25702273  0.08924494  0.87298527     0.96300
O555        O  0.27677090  0.16579282  0.88233510    -0.76900
O556        O  0.16956111  0.09428830  0.93605499    -0.82100
C557        C  0.16553503  0.16463553  0.95294001     0.98900
C558        C  0.17765039  0.08608666  0.96081965     1.04800
O559        O  0.19365673  0.15690404  0.97089170    -0.77800
C560        C  0.24203097  0.16500996  0.86820711     1.03100
C561        C  0.24789652  0.22098779  0.81165218    -0.12100
C562        C  0.24442733  0.20496177  0.78711897     0.04900
C563        C  0.23610938  0.17629333  0.78984072    -0.07400
C564        C  0.23323893  0.16430271  0.81667165    -0.08100
C565        C  0.23984161  0.17999811  0.84104283    -0.02700
C566        C  0.24647316  0.20874632  0.83845170     0.04100
N567        N  0.25012462  0.22589026  0.86272599     0.66600
H568        H  0.25267812  0.24317808  0.80989742     0.15500
H569        H  0.22781558  0.14217839  0.81846118     0.15200
N570        N  0.23179729  0.15881541  0.76585322     0.74300
O571        O  0.28513500  0.22668340  0.87624375    -0.39100
O572        O  0.22130739  0.24361941  0.86769944    -0.39100
O573        O  0.26425363  0.15445201  0.75066280    -0.39800
O574        O  0.19994702  0.14259600  0.76412367    -0.39800
C575        C  0.27165589  0.30532155  0.69639753    -0.12100
C576        C  0.25770267  0.27820488  0.69117389     0.04900
C577        C  0.24741472  0.27017917  0.66322095    -0.07400
C578        C  0.24710618  0.29057777  0.64214027    -0.08100
C579        C  0.26131330  0.31753243  0.64743296    -0.02700
C580        C  0.27600205  0.32458822  0.67457911     0.04100
N581        N  0.29498757  0.35107423  0.68048801     0.66600
H582        H  0.28063192  0.31123045  0.71753530     0.15500
H583        H  0.23711125  0.28529212  0.62101821     0.15200
N584        N  0.23981710  0.24168565  0.65530954     0.74300
O585        O  0.28467510  0.36371709  0.70259254    -0.39100
O586        O  0.32897796  0.35824569  0.66786916    -0.39100
O587        O  0.24727039  0.22205168  0.67210363    -0.39800
O588        O  0.22957937  0.23575664  0.63036428    -0.39800
C589        C  0.22817432  0.41622482  0.68184234    -0.12100
C590        C  0.24065096  0.43030151  0.65729251     0.04900
C591        C  0.25393747  0.45821336  0.65915616    -0.07400
C592        C  0.25602695  0.47088403  0.68561340    -0.08100
C593        C  0.24568210  0.45640119  0.71034394    -0.02700
C594        C  0.23121149  0.42876404  0.70829456     0.04100
N595        N  0.22015498  0.41295971  0.73267676     0.66600
H596        H  0.21781342  0.39480534  0.68059873     0.15500
H597        H  0.26489614  0.49256205  0.68697808     0.15200
N598        N  0.26313427  0.47435169  0.63448374     0.74300
O599        O  0.18391549  0.40110534  0.73378488    -0.39100
O600        O  0.24971089  0.40499614  0.74901913    -0.39100
O601        O  0.24080754  0.47115098  0.61254106    -0.39800
O602        O  0.28901252  0.49452895  0.63581687    -0.39800
C603        C  0.25106521  0.02401826  0.82932815    -0.12100
C604        C  0.25811105  0.03453330  0.80221713     0.04900
C605        C  0.26986367  0.06283727  0.79889837    -0.07400
C606        C  0.27134747  0.07980265  0.82287476    -0.08100
C607        C  0.26169347  0.06941098  0.84968712    -0.02700
C608        C  0.25300189  0.04098600  0.85309919     0.04100
N609        N  0.24798474  0.02883546  0.88048408     0.66600
H610        H  0.24451974  0.00209032  0.83194732     0.15500
H611        H  0.27858370  0.10165679  0.82055142     0.15200
N612        N  0.28037971  0.07485446  0.77197367     0.74300
O613        O  0.22532759  0.00729969  0.88357478    -0.39100
O614        O  0.27116300  0.03696110  0.90067310    -0.39100
O615        O  0.27041458  0.06291802  0.74941615    -0.39800
O616        O  0.29993248  0.09778666  0.77059402    -0.39800
C617        C  0.17563866  0.29409806  0.73853779    -0.12100
C618        C  0.17623723  0.27053088  0.72123258     0.04900
C619        C  0.14289873  0.26756701  0.70108276    -0.07400
C620        C  0.11224274  0.28870520  0.69751222    -0.08100
C621        C  0.11215122  0.31228033  0.71451824    -0.02700
C622        C  0.14351781  0.31460669  0.73593678     0.04100
N623        N  0.14353440  0.33756784  0.75499389     0.66600
H624        H  0.20032354  0.29635423  0.75451753     0.15500
H625        H  0.08785544  0.28653730  0.68131323     0.15200
N626        N  0.13779388  0.24309146  0.68477035     0.74300
O627        O  0.10888834  0.34504918  0.76652327    -0.39100
O628        O  0.17878151  0.34747562  0.76370325    -0.39100
O629        O  0.10625202  0.22754764  0.69048262    -0.39800
O630        O  0.15140617  0.24333753  0.65988541    -0.39800
C631        C  0.38940131  0.28525071  0.69384508    -0.12100
C632        C  0.40218466  0.30348541  0.71520780     0.04900
C633        C  0.38356873  0.30017741  0.74199719    -0.07400
C634        C  0.35061154  0.28040301  0.74620972    -0.08100
C635        C  0.33560682  0.26341136  0.72419903    -0.02700
C636        C  0.35707990  0.26521507  0.69802667     0.04100
N637        N  0.34655521  0.24721995  0.67525431     0.66600
H638        H  0.40414902  0.28697743  0.67330879     0.15500
H639        H  0.33451933  0.27967699  0.76635816     0.15200
N640        N  0.39474080  0.31843656  0.76438222     0.74300
O641        O  0.33969626  0.25751874  0.65126293    -0.39100
O642        O  0.35780896  0.22221046  0.67685756    -0.39100
O643        O  0.37577144  0.34142373  0.76666079    -0.39800
O644        O  0.41944328  0.31017025  0.78375428    -0.39800
C645        C  0.37317443  0.42300063  0.74804981    -0.12100
C646        C  0.39277951  0.42831060  0.72218911     0.04900
C647        C  0.38028737  0.45161868  0.70633953    -0.07400
C648        C  0.34775189  0.46886925  0.71628814    -0.08100
C649        C  0.32608741  0.46269355  0.74133436    -0.02700
C650        C  0.33914962  0.43948781  0.75780264     0.04100
N651        N  0.31807602  0.43162047  0.78371692     0.66600
H652        H  0.38277389  0.40477588  0.75985370     0.15500
H653        H  0.33856932  0.98694752  0.70335024     0.15200
N654        N  0.40023909  0.45790245  0.68004254     0.74300
O655        O  0.28176363  0.44124755  0.79038909    -0.39100
O656        O  0.33576792  0.41444840  0.80017396    -0.39100
O657        O  0.37882836  0.45599602  0.65757294    -0.39800
O658        O  0.43315113  0.97124426  0.67793795    -0.39800
C659        C  0.10699896  0.43987994  0.74968128    -0.12100
C660        C  0.09685869  0.43852520  0.72091959     0.04900
C661        C  0.11835645  0.45704641  0.70240098    -0.07400
C662        C  0.15234214  0.47354255  0.71221727    -0.08100
C663        C  0.16609496  0.47217976  0.74022376    -0.02700
C664        C  0.14161534  0.45619575  0.75943820     0.04100
N665        N  0.15375209  0.45422742  0.78841093     0.66600
H666        H  0.09072831  0.42626146  0.76437304     0.15500
H667        H  0.16975610  0.48640464  0.69740318     0.15200
N668        N  0.10741593  0.45859935  0.67324118     0.74300
O669        O  0.12551142  0.45682722  0.80723288    -0.39100
O670        O  0.19074812  0.44554853  0.79507392    -0.39100
O671        O  0.07224428  0.46949527  0.66572916    -0.39800
O672        O  0.13479270  0.45192572  0.65493034    -0.39800
C673        C  0.10440657  0.17825043  0.98340883    -0.12100
C674        C  0.13308087  0.18515224  0.96177753     0.04900
C675        C  0.13006894  0.21138430  0.94888301    -0.07400
C676        C  0.09960133  0.23063740  0.95837303    -0.08100
C677        C  0.06994201  0.22344654  0.97938837    -0.02700
C678        C  0.07232226  0.19686180  0.99180454     0.04100
N679        N  0.04134149  0.18860389  0.51064504     0.66600
H680        H  0.10561776  0.15806615  0.49170677     0.15500
H681        H  0.09801951  0.25079696  0.94846534     0.15200
N682        N  0.15720368  0.21847899  0.92577075     0.74300
O683        O  0.04200302  0.19787518  0.53531712    -0.39100
O684        O  0.01718874  0.16834147  0.50493986    -0.39100
O685        O  0.14661629  0.21132502  0.90126089    -0.39800
O686        O  0.18896716  0.23443148  0.92938068    -0.39800
C687        C  0.35815225  0.21951950  0.94950931    -0.12100
C688        C  0.34368176  0.19918797  0.96861493     0.04900
C689        C  0.36147221  0.19887630  0.99603836    -0.07400
C690        C  0.39664655  0.21619372  0.00227854    -0.08100
C691        C  0.41280622  0.23520900  0.98256189    -0.02700
C692        C  0.39140858  0.23805531  0.95663740     0.04100
N693        N  0.40316825  0.25956247  0.93743938     0.66600
H694        H  0.34402535  0.22068018  0.92871060     0.15500
H695        H  0.41455330  0.21621172  0.51985485     0.15200
N696        N  0.34910871  0.18146280  0.51578130     0.74300
O697        O  0.41717800  0.25344167  0.91342739    -0.39100
O698        O  0.39047843  0.28394171  0.94204494    -0.39100
O699        O  0.37648257  0.16939213  0.53119067    -0.39800
O700        O  0.31033844  0.18224392  0.52370273    -0.39800
C701        C  0.13650718  0.29272045  0.54648752    -0.12100
C702        C  0.14983601  0.31358193  0.52771332     0.04900
C703        C  0.13233047  0.31380885  0.50027100    -0.07400
C704        C  0.09887639  0.29533535  0.49342302    -0.08100
C705        C  0.08336335  0.27583777  0.51293695    -0.02700
C706        C  0.10435872  0.27354288  0.53915191     0.04100
N707        N  0.09276195  0.25243484  0.55883327     0.66600
H708        H  0.15042810  0.29174077  0.56736051     0.15500
H709        H  0.08305871  0.29732314  0.47320348     0.15200
N710        N  0.14557918  0.33391951  0.47983541     0.79900
O711        O  0.10831311  0.22852924  0.55568953    -0.39100
O712        O  0.07889426  0.25927491  0.58268730    -0.39100
O713        O  0.18345004  0.33312355  0.47025748    -0.39800
O714        O  0.11756826  0.34828343  0.46720291    -0.39800
C715        C  0.38922269  0.28025393  0.52973420    -0.12100
C716        C  0.42316538  0.28920413  0.51240440     0.04900
C717        C  0.42405414  0.31721084  0.50339481    -0.07400
C718        C  0.39185355  0.33557778  0.51225538    -0.08100
C719        C  0.35843879  0.32656170  0.52974344    -0.02700
C720        C  0.35689532  0.29865247  0.53829964     0.04100
N721        N  0.32269533  0.28884519  0.55581595     0.66600
H722        H  0.38817895  0.25913945  0.53726275     0.15500
H723        H  0.39321088  0.35711297  0.50574772     0.15200
N724        N  0.45791328  0.32740415  0.48567525     0.74300
O725        O  0.28466200  0.28768762  0.54639623    -0.39100
O726        O  0.33010283  0.28253445  0.58109696    -0.39100
O727        O  0.46555225  0.31580646  0.46255809    -0.39800
O728        O  0.47684186  0.34982030  0.49151130    -0.39800
C729        C  0.02787020  0.31536488  0.54717055    -0.12100
C730        C  0.50268337  0.29191418  0.54496818     0.04900
C731        C  0.48198281  0.28205837  0.56960630    -0.07400
C732        C  0.48341828  0.29813103  0.59393481    -0.08100
C733        C  0.50835861  0.32223827  0.59519811    -0.02700
C734        C  0.03385441  0.32903189  0.57272729     0.04100
N735        N  0.06303203  0.35228940  0.57380895     0.66600
H736        H  0.04284487  0.32362087  0.52843756     0.15500
H737        H  0.46627792  0.29122425  0.61249410     0.15200
N738        N  0.46057482  0.25559178  0.57067496     0.74300
O739        O  0.09105725  0.35355224  0.59299000    -0.39100
O740        O  0.06796498  0.36750377  0.55243532    -0.39100
O741        O  0.47633386  0.23498844  0.55820914    -0.39800
O742        O  0.42932332  0.25177317  0.58718935    -0.39800
C743        C  0.14898058  0.22462442  0.77925053    -0.12100
C744        C  0.16776266  0.21730811  0.75359204     0.04900
C745        C  0.14908943  0.19551781  0.73765735    -0.07400
C746        C  0.11331624  0.18119463  0.74841362    -0.08100
C747        C  0.09754037  0.18667019  0.77530724    -0.02700
C748        C  0.11464182  0.20926040  0.79040446     0.04100
N749        N  0.09842846  0.21621165  0.81751500     0.66600
H750        H  0.16277287  0.24134309  0.79145819     0.15500
H751        H  0.10070956  0.16361475  0.73692668     0.15200
N752        N  0.16757469  0.18604739  0.71173386     0.74300
O753        O  0.12201746  0.21319798  0.83892564    -0.39100
O754        O  0.06248873  0.22821677  0.81969166    -0.39100
O755        O  0.20783621  0.18420949  0.70914865    -0.39800
O756        O  0.14390460  0.17496788  0.69330918    -0.39800
C757        C  0.37705064  0.17310657  0.75529387    -0.12100
C758        C  0.39137779  0.17710910  0.78278162     0.04900
C759        C  0.37587797  0.19986561  0.79810565    -0.07400
C760        C  0.34453147  0.21722944  0.78615314    -0.08100
C761        C  0.32783314  0.21205423  0.75920871    -0.02700
C762        C  0.34527821  0.18991839  0.74320727     0.04100
N763        N  0.33031091  0.18297920  0.71541753     0.66600
H764        H  0.38911615  0.15556641  0.74359762     0.15500
H765        H  0.33253796  0.23455132  0.79818123     0.15200
N766        N  0.39250530  0.20598129  0.82540625     0.74300
O767        O  0.35316527  0.16812223  0.69957096    -0.39100
O768        O  0.29318039  0.18963945  0.70716279    -0.39100
O769        O  0.43067162  0.21470341  0.82810101    -0.39800
O770        O  0.36803986  0.20502373  0.84650119    -0.39800
C771        C  0.38566444  0.03379742  0.80819037    -0.12100
C772        C  0.40034772  0.05302893  0.78817335     0.04900
C773        C  0.38562487  0.05061011  0.76021374    -0.07400
C774        C  0.35353223  0.03112517  0.75359410    -0.08100
C775        C  0.33558792  0.01382807  0.77432085    -0.02700
C776        C  0.35459390  0.01373115  0.80131395     0.04100
N777        N  0.34392396  0.49371914  0.82190978     0.66600
H778        H  0.39861529  0.03427540  0.82933307     0.15500
H779        H  0.33984260  0.03123818  0.73264543     0.15200
N780        N  0.39986106  0.06941977  0.73887094     0.74300
O781        O  0.33461253  0.50130344  0.84645875    -0.39100
O782        O  0.35829843  0.46956751  0.81852281    -0.39100
O783        O  0.41994265  0.06039951  0.71781709    -0.39800
O784        O  0.38897707  0.09458700  0.73972669    -0.39800
C785        C  0.12471016  0.06152520  0.76314981    -0.12100
C786        C  0.11223304  0.06389956  0.79129319     0.04900
C787        C  0.12880776  0.04481481  0.81107114    -0.07400
C788        C  0.15874661  0.02478253  0.80259979    -0.08100
C789        C  0.17460719  0.02429313  0.77500794    -0.02700
C790        C  0.15571455  0.04219047  0.75483022     0.04100
N791        N  0.16720538  0.04114226  0.72577236     0.66600
H792        H  0.11145649  0.07554324  0.74753330     0.15500
H793        H  0.17054475  0.01002300  0.81791903     0.15200
N794        N  0.11532569  0.04531282  0.83972562     0.74300
O795        O  0.13793717  0.03763800  0.70767536    -0.39100
O796        O  0.20317312  0.05049548  0.71791585    -0.39100
O797        O  0.09146723  0.02622726  0.84911611    -0.39800
O798        O  0.13310544  0.06188507  0.85659090    -0.39800
C799        C  0.00941653  0.21035962  0.89984473    -0.12100
C800        C  0.48970933  0.18282635  0.90368174     0.04900
C801        C  0.46730261  0.17536673  0.92856846    -0.07400
C802        C  0.47027276  0.19249914  0.95212741    -0.08100
C803        C  0.49099294  0.21826280  0.95082783    -0.02700
C804        C  0.00838492  0.22874718  0.92264899     0.04100
N805        N  0.02629249  0.25615678  0.91917962     0.66600
H806        H  0.02639214  0.21617183  0.88086169     0.15500
H807        H  0.45551178  0.18581682  0.97156329     0.15200
N808        N  0.44167064  0.15058772  0.93057653     0.74300
O809        O  0.05270918  0.26111735  0.89965907    -0.39100
O810        O  0.01238437  0.27618843  0.93342224    -0.39100
O811        O  0.44386054  0.13576272  0.95242481    -0.39800
O812        O  0.40928309  0.14783595  0.91475121    -0.39800
C813        C  0.36800857  0.05188153  0.95002593    -0.12100
C814        C  0.36028196  0.07473681  0.96730935     0.04900
C815        C  0.38287355  0.07662552  0.99300074    -0.07400
C816        C  0.41295474  0.05608779  0.00045914    -0.08100
C817        C  0.42087920  0.03313386  0.98317680    -0.02700
C818        C  0.39733661  0.03101083  0.95773358     0.04100
N819        N  0.40089934  0.00756346  0.93981137     0.66600
H820        H  0.35049426  0.04995016  0.93041040     0.15500
H821        H  0.43701603  0.06194791  0.51690586     0.15200
N822        N  0.38438630  0.10363582  0.50682678     0.74300
O823        O  0.37799129  0.98666463  0.94534172    -0.39100
O824        O  0.41252537  0.01139525  0.91472206    -0.39100
O825        O  0.34445834  0.10288628  0.02526424    -0.39800
O826        O  0.41641103  0.11978053  0.50757759    -0.39800
C827        C  0.12635305  0.07146215  0.99819269    -0.12100
C828        C  0.14865160  0.06490782  0.97353635     0.04900
C829        C  0.13882342  0.03983710  0.95990393    -0.07400
C830        C  0.10546583  0.02280268  0.96988061    -0.08100
C831        C  0.08015453  0.03068458  0.99283905    -0.02700
C832        C  0.09168889  0.05504648  0.00778112     0.04100
N833        N  0.06481345  0.06775694  0.53120506     0.66600
H834        H  0.13362288  0.09074903  0.00877098     0.15500
H835        H  0.09791687  0.00401585  0.95864737     0.15200
N836        N  0.16236802  0.03135924  0.93577854     0.74300
O837        O  0.08261395  0.08074221  0.55107179    -0.39100
O838        O  0.02418001  0.06694692  0.53007787    -0.39100
O839        O  0.18850277  0.01146419  0.93798851    -0.39800
O840        O  0.14970485  0.03890004  0.91176278    -0.39800
C841        C  0.50992737  0.04286361  0.90658341    -0.12100
C842        C  0.01140258  0.07237438  0.90732039     0.04900
C843        C  0.01890728  0.08445892  0.93391860    -0.07400
C844        C  0.01427904  0.06807575  0.95795728    -0.08100
C845        C  0.00684482  0.03960944  0.95588519    -0.02700
C846        C  0.50828860  0.02674354  0.93091975     0.04100
N847        N  0.51954287  0.49800089  0.92703711     0.66600
H848        H  0.50801151  0.03297688  0.88623495     0.15500
H849        H  0.01739124  0.07747391  0.97842968     0.15200
N850        N  0.03080386  0.11310053  0.93704323     0.74300
O851        O  0.49253279  0.48135343  0.93734003    -0.39100
O852        O  0.54928034  0.48874243  0.91168286    -0.39100
O853        O  0.01692572  0.12662481  0.95773630    -0.39800
O854        O  0.06279300  0.12256268  0.92377623    -0.39800
C855        C  0.38870325  0.48821515  0.53840014    -0.12100
C856        C  0.41505541  0.48135430  0.51567678     0.04900
C857        C  0.40427311  0.45796164  0.49897976    -0.07400
C858        C  0.36756139  0.44223204  0.50582119    -0.08100
C859        C  0.34368718  0.44781575  0.53001076    -0.02700
C860        C  0.35420251  0.47118407  0.54617267     0.04100
N861        N  0.33146765  0.47704632  0.57140257     0.66600
H862        H  0.39965315  0.00488302  0.55242737     0.15500
H863        H  0.36038176  0.42366642  0.49396479     0.15200
N864        N  0.43172620  0.44831812  0.47671344     0.74300
O865        O  0.35153854  0.97250831  0.59537922    -0.39100
O866        O  0.29768941  0.49152889  0.57031457    -0.39100
O867        O  0.47219121  0.44932094  0.47919850    -0.39800
O868        O  0.41089913  0.43382217  0.95607324    -0.39800
C869        C  0.07639123  0.45485871  0.00786486    -0.12100
C870        C  0.07265853  0.48002025  0.52861368     0.04900
C871        C  0.09638052  0.48034520  0.55397221    -0.07400
C872        C  0.12676246  0.45946366  0.55935917    -0.08100
C873        C  0.13423594  0.43825603  0.53995049    -0.02700
C874        C  0.11053542  0.43793709  0.51472147     0.04100
N875        N  0.11009926  0.41111715  0.99507694     0.66600
H876        H  0.05470077  0.45222062  0.99019910     0.15500
H877        H  0.14483569  0.45987336  0.57886425     0.15200
N878        N  0.09056016  0.50150584  0.57443773     0.74300
O879        O  0.07820047  0.39496461  0.99319609    -0.39100
O880        O  0.13953734  0.40997346  0.97689278    -0.39100
O881        O  0.08300871  0.49460607  0.59953723    -0.39800
O882        O  0.10157544  0.02572832  0.56536321    -0.39800
C883        C  0.49356853  0.46300351  0.60386291    -0.12100
C884        C  0.98647792  0.43164406  0.59970769     0.04900
C885        C  0.98580081  0.42174212  0.57170455    -0.07400
C886        C  0.99004354  0.44081022  0.54952614    -0.08100
C887        C  0.98892844  0.46932852  0.55426703    -0.02700
C888        C  0.49133078  0.48140639  0.58091305     0.04100
N889        N  0.49066757  0.51076142  0.58583141     0.66600
H890        H  0.49827739  0.47102613  0.62485038     0.15500
H891        H  0.99297224  0.43348936  0.52822761     0.15200
N892        N  0.97825598  0.39296118  0.56527588     0.74300
O893        O  0.46127553  0.52538217  0.57499243    -0.39100
O894        O  0.51381399  0.52116283  0.60489215    -0.39100
O895        O  0.95666358  0.37797721  0.58183544    -0.39800
O896        O  0.98452302  0.38421167  0.54070120    -0.39800
C897        C  0.99257255  0.98674081  0.02763971     0.02400
C898        C  0.03421058  0.99616548  0.01978994     0.02400
C899        C  0.03920708  0.51849519  0.50112890     0.02400
C900        C  0.50245661  0.52520890  0.48249290     0.02400
C901        C  0.46059932  0.51620875  0.48999325     0.02400
C902        C  0.45442325  0.99512783  0.01280311     0.02400
Fe903      Fe  0.44673556  0.61841459  0.34324872     1.65800
Fe904      Fe  0.05513247  0.63000792  0.34241391     1.73200
Fe905      Fe  0.49938003  0.61887109  0.28010624     1.54400
O906        O  0.45745964  0.58530412  0.27942511    -0.81500
O907        O  0.07672939  0.65821588  0.31347597    -0.79800
O908        O  0.42286502  0.58584036  0.32004901    -0.84000
O909        O  0.41550229  0.64732482  0.31821385    -0.78900
O910        O  0.05044174  0.59119587  0.28168204    -0.80600
O911        O  0.03074687  0.66291516  0.36497772    -0.83400
C912        C  0.41991098  0.65547147  0.29294492     0.97400
C913        C  0.42919359  0.57568332  0.29598688     1.04800
O914        O  0.00031775  0.62250766  0.32270045    -1.12400
O915        O  0.04146575  0.60369897  0.37499624    -0.74800
O916        O  0.47390475  0.59006175  0.37062851    -0.78300
O917        O  0.44880300  0.64624482  0.27657392    -0.79000
C918        C  0.00933037  0.59013411  0.38376216     0.96300
O919        O  0.46124790  0.64955406  0.37079682    -0.76900
O920        O  0.08524171  0.59737058  0.32229534    -0.82100
C921        C  0.06796013  0.66460498  0.28837980     0.98900
C922        C  0.08015966  0.58495638  0.29902567     1.04800
O923        O  0.03961191  0.65193108  0.27415725    -0.77800
C924        C  0.49319855  0.66442432  0.37732964     1.03100
C925        C  0.49329844  0.73760043  0.47328631     0.02400
C926        C  0.03565297  0.74437055  0.48430401     0.02400
C927        C  0.03898697  0.76061839  0.01027538     0.02400
C928        C  0.50018831  0.77541837  0.01740555     0.02400
C929        C  0.45927092  0.77041913  0.00508046     0.02400
C930        C  0.45579563  0.74999012  0.48487189     0.02400
Fe931      Fe  0.44347627  0.86831533  0.16025978     1.65800
Fe932      Fe  0.05283974  0.87783994  0.16107562     1.73200
Fe933      Fe  0.49952070  0.86840468  0.22277512     1.54400
O934        O  0.44817001  0.89544188  0.22690816    -0.81500
O935        O  0.08831302  0.85140921  0.18701071    -0.79800
O936        O  0.41494314  0.89757077  0.18523498    -0.84000
O937        O  0.42051067  0.83635523  0.18446844    -0.78900
O938        O  0.04665732  0.90203972  0.22723802    -0.80600
O939        O  0.04023307  0.84437744  0.13635997    -0.83400
C940        C  0.42810678  0.82516881  0.20801225     0.97400
C941        C  0.41961817  0.90530715  0.21046840     1.04800
O942        O  0.99886489  0.87303711  0.18207911    -1.12400
O943        O  0.02654699  0.90399452  0.13038601    -0.74800
O944        O  0.45727128  0.89928497  0.13195464    -0.78300
O945        O  0.45756999  0.83405050  0.22438128    -0.79000
C946        C  0.98931891  0.91285031  0.12366955     0.96300
O947        O  0.46700370  0.83933997  0.13265076    -0.76900
O948        O  0.06970584  0.91196742  0.18411791    -0.82100
C949        C  0.08100563  0.83666618  0.20864677     0.98900
C950        C  0.06829522  0.91711367  0.21017305     1.04800
O951        O  0.04750323  0.83969915  0.22356260    -0.77800
C952        C  0.50350111  0.83723520  0.12086075     1.03100
C953        C  0.25413566  0.51415988  0.27850998     0.02400
C954        C  0.21260537  0.50641312  0.26813130     0.02400
C955        C  0.20905668  0.98514347  0.24789672     0.02400
C956        C  0.24698807  0.97278912  0.23707725     0.02400
C957        C  0.28792357  0.97995534  0.24838971     0.02400
C958        C  0.29178960  0.50087379  0.26838014     0.02400
Fe959      Fe  0.29999883  0.88363556  0.09144518     1.65800
Fe960      Fe  0.19186464  0.87219562  0.09208887     1.73200
Fe961      Fe  0.24409227  0.87987804  0.02907759     1.54400
O962        O  0.28449080  0.91416361  0.02629811    -0.81500
O963        O  0.16887960  0.84255486  0.06490584    -0.79800
O964        O  0.32113156  0.91546562  0.06647953    -0.84000
O965        O  0.33100076  0.85457911  0.06683092    -0.78900
O966        O  0.19166409  0.90653929  0.02866365    -0.80600
O967        O  0.21806444  0.84045879  0.11498329    -0.83400
C968        C  0.32649422  0.84577730  0.04188206     0.97400
C969        C  0.31312162  0.92462835  0.04214225     1.04800
O970        O  0.24536982  0.87863889  0.07078628    -1.12400
O971        O  0.20689434  0.89965986  0.12405849    -0.74800
O972        O  0.27511182  0.91296214  0.11847093    -0.78300
O973        O  0.29637914  0.85355005  0.02552788    -0.79000
C974        C  0.23941216  0.91391845  0.13137979     0.96300
O975        O  0.28690509  0.85277714  0.12003287    -0.76900
O976        O  0.16079263  0.90377090  0.07095041    -0.82100
C977        C  0.17625390  0.83404031  0.04033374     0.98900
C978        C  0.16352090  0.91412026  0.04642452     1.04800
O979        O  0.20420758  0.84542138  0.02469638    -0.77800
C980        C  0.25483134  0.83777784  0.12627332     1.03100
C981        C  0.24438042  0.71829363  0.25863006     0.02400
C982        C  0.28582878  0.72609236  0.24879164     0.02400
C983        C  0.29012046  0.74689345  0.22799584     0.02400
C984        C  0.25205716  0.75783242  0.21533120     0.02400
C985        C  0.21030950  0.75040125  0.22517284     0.02400
C986        C  0.20678235  0.72908233  0.24549597     0.02400
Fe987      Fe  0.30266560  0.63551961  0.40739683     1.65800
Fe988      Fe  0.19485261  0.62287292  0.40780751     1.73200
Fe989      Fe  0.24849824  0.63208254  0.47014874     1.54400
O990        O  0.30120182  0.60563271  0.47358762    -0.81500
O991        O  0.16405447  0.65536028  0.42796739    -0.79800
O992        O  0.33385027  0.60580035  0.43179353    -0.84000
O993        O  0.32536551  0.66714772  0.43225521    -0.78900
O994        O  0.20824505  0.59801965  0.47590299    -0.80600
O995        O  0.20996248  0.64927970  0.37483147    -0.83400
C996        C  0.31735284  0.67684830  0.45627699     0.97400
C997        C  0.33044679  0.59712458  0.45703568     1.04800
O998        O  0.24866146  0.63014410  0.42858259    -1.12400
O999        O  0.22149291  0.59020961  0.38587779    -0.74800
O1000       O  0.28837350  0.60534380  0.37794724    -0.78300
O1001       O  0.28838156  0.66666968  0.47197158    -0.79000
C1002       C  0.25713641  0.58910377  0.37282924     0.96300
O1003       O  0.27653284  0.66541927  0.38115047    -0.76900
O1004       O  0.17064381  0.59441584  0.43640605    -0.82100
C1005       C  0.16710081  0.66573151  0.45244512     0.98900
C1006       C  0.17860700  0.58690799  0.46138817     1.04800
O1007       O  0.19565697  0.65846361  0.47027785    -0.77800
C1008       C  0.24127743  0.66465863  0.36760400     1.03100
C1009       C  0.24688709  0.72009167  0.31074972    -0.12100
C1010       C  0.24078166  0.70400810  0.28648236     0.04900
C1011       C  0.23062957  0.67563666  0.28957983    -0.07400
C1012       C  0.22848897  0.66393269  0.31653068    -0.08100
C1013       C  0.23804572  0.67955518  0.34053636    -0.02700
C1014       C  0.24676465  0.70802472  0.33759397     0.04100
N1015       N  0.25461390  0.72501549  0.36157196     0.66600
H1016       H  0.25321980  0.74209990  0.30869777     0.15500
H1017       H  0.22172472  0.64197825  0.31862799     0.15200
N1018       N  0.22424075  0.65808397  0.26584151     0.74300
O1019       O  0.29130486  0.72485607  0.37307216    -0.39100
O1020       O  0.22802825  0.74375197  0.36781499    -0.39100
O1021       O  0.25566116  0.65306014  0.24995080    -0.39800
O1022       O  0.19168045  0.64238164  0.26500306    -0.39800
C1023       C  0.26930129  0.80442128  0.19704956    -0.12100
C1024       C  0.25551907  0.77736025  0.19148129     0.04900
C1025       C  0.24538549  0.76943754  0.16349642    -0.07400
C1026       C  0.24575063  0.78986251  0.14252117    -0.08100
C1027       C  0.25974491  0.81675979  0.14819220    -0.02700
C1028       C  0.27354379  0.82382816  0.17545258     0.04100
N1029       N  0.29091763  0.85065523  0.18170225     0.66600
H1030       H  0.27776151  0.81026497  0.21829785     0.15500
H1031       H  0.23607942  0.78473656  0.12129213     0.15200
N1032       N  0.23680289  0.74106816  0.15554149     0.74300
O1033       O  0.27774437  0.86356518  0.20298142    -0.39100
O1034       O  0.32555966  0.85832511  0.17017948    -0.39100
O1035       O  0.24396783  0.72127762  0.17220350    -0.39800
O1036       O  0.22554486  0.73537976  0.13072232    -0.39800
C1037       C  0.22388539  0.91683065  0.18216459    -0.12100
C1038       C  0.23677874  0.93042702  0.15744694     0.04900
C1039       C  0.25169524  0.95801561  0.15902730    -0.07400
C1040       C  0.25519530  0.97075696  0.18538835    -0.08100
C1041       C  0.24480301  0.95664440  0.21031645    -0.02700
C1042       C  0.22844595  0.92938587  0.20854471     0.04100
N1043       N  0.21698242  0.91397959  0.23312761     0.66600
H1044       H  0.21233147  0.89565308  0.18111013     0.15500
H1045       H  0.26516050  0.99225030  0.18652821     0.15200
N1046       N  0.26142008  0.97376605  0.13417764     0.74300
O1047       O  0.18114177  0.90160752  0.23402322    -0.39100
O1048       O  0.24595609  0.90728396  0.25046132    -0.39100
O1049       O  0.23940416  0.97039367  0.11212499    -0.39800
O1050       O  0.28771958  0.99372768  0.13535284    -0.39800
C1051       C  0.25154009  0.52385564  0.32927244    -0.12100
C1052       C  0.25790583  0.53437396  0.30207689     0.04900
C1053       C  0.26889210  0.56279021  0.29861361    -0.07400
C1054       C  0.27041845  0.57981693  0.32255019    -0.08100
C1055       C  0.26158507  0.56935336  0.34945885    -0.02700
C1056       C  0.25355765  0.54089922  0.35296817     0.04100
N1057       N  0.24921775  0.52885292  0.38041400     0.66600
H1058       H  0.24534458  0.50190074  0.33202948     0.15500
H1059       H  0.27699996  0.60175274  0.32013207     0.15200
N1060       N  0.27850790  0.57487232  0.27157960     0.74300
O1061       O  0.22479511  0.50822904  0.38409618    -0.39100
O1062       O  0.27433172  0.53610216  0.39996253    -0.39100
O1063       O  0.26753899  0.56306931  0.24914185    -0.39800
O1064       O  0.29787458  0.59785843  0.26998956    -0.39800
C1065       C  0.17507262  0.79473337  0.23861260    -0.12100
C1066       C  0.17402614  0.77094981  0.22158445     0.04900
C1067       C  0.13988564  0.76845028  0.20193871    -0.07400
C1068       C  0.11007500  0.79011873  0.19858102    -0.08100
C1069       C  0.11164438  0.81389776  0.21525668    -0.02700
C1070       C  0.14384490  0.81586897  0.23620274     0.04100
N1071       N  0.14548994  0.83899339  0.25505121     0.66600
H1072       H  0.20036433  0.79666455  0.25422928     0.15500
H1073       H  0.08503777  0.78822231  0.18276860     0.15200
N1074       N  0.13321329  0.74398599  0.18585473     0.74300
O1075       O  0.11136099  0.84782919  0.26624319    -0.39100
O1076       O  0.18138349  0.84785385  0.26381003    -0.39100
O1077       O  0.09993311  0.72980456  0.19101550    -0.39800
O1078       O  0.14847848  0.74313075  0.16140658    -0.39800
C1079       C  0.38783055  0.78264338  0.19446972    -0.12100
C1080       C  0.40011910  0.80112161  0.21575379     0.04900
C1081       C  0.38047413  0.79841153  0.24228128    -0.07400
C1082       C  0.34712538  0.77891151  0.24630833    -0.08100
C1083       C  0.33272927  0.76167554  0.22434736    -0.02700
C1084       C  0.35503194  0.76291441  0.19849186     0.04100
N1085       N  0.34481765  0.74464338  0.17590288     0.66600
H1086       H  0.40320752  0.78402408  0.17410513     0.15500
H1087       H  0.33025116  0.77861136  0.26619348     0.15200
N1088       N  0.39084391  0.81712762  0.26443435     0.74300
O1089       O  0.33705699  0.75471586  0.15193299    -0.39100
O1090       O  0.35719232  0.71984791  0.17754146    -0.39100
O1091       O  0.37128724  0.83996032  0.26617036    -0.39800
O1092       O  0.41487583  0.80924998  0.28432186    -0.39800
C1093       C  0.37086439  0.92193739  0.24769261    -0.12100
C1094       C  0.38959716  0.92623514  0.22135695     0.04900
C1095       C  0.37764713  0.94956203  0.20531596    -0.07400
C1096       C  0.34689959  0.96793907  0.21567402    -0.08100
C1097       C  0.32573829  0.96265152  0.24111908    -0.02700
C1098       C  0.33814273  0.93937070  0.25770885     0.04100
N1099       N  0.31765249  0.93236215  0.28405582     0.66600
H1100       H  0.38008933  0.90380307  0.25976151     0.15500
H1101       H  0.34009673  0.48689199  0.20491605     0.15200
N1102       N  0.39607496  0.95465300  0.17831167     0.74300
O1103       O  0.28174997  0.94249253  0.29090276    -0.39100
O1104       O  0.33538621  0.91538540  0.30070001    -0.39100
O1105       O  0.37644938  0.94674342  0.15653260    -0.39800
O1106       O  0.44267511  0.46601365  0.18353894    -0.39800
C1107       C  0.10592380  0.94173409  0.24969314    -0.12100
C1108       C  0.09574517  0.94037663  0.22094416     0.04900
C1109       C  0.11745306  0.95871182  0.20239748    -0.07400
C1110       C  0.15204849  0.97472456  0.21208610    -0.08100
C1111       C  0.16584805  0.97334490  0.24009088    -0.02700
C1112       C  0.14092490  0.95772480  0.25943747     0.04100
N1113       N  0.15263322  0.95587156  0.28854273     0.66600
H1114       H  0.08930654  0.92831706  0.26440715     0.15500
H1115       H  0.16990134  0.98717043  0.19714616     0.15200
N1116       N  0.10596030  0.96062397  0.17335587     0.74300
O1117       O  0.12370783  0.95639605  0.30712116    -0.39100
O1118       O  0.19072933  0.94983416  0.29557639    -0.39100
O1119       O  0.07156768  0.97272923  0.16623310    -0.39800
O1120       O  0.13250269  0.95335044  0.15476747    -0.39800
C1121       C  0.10642976  0.68023367  0.48268539    -0.12100
C1122       C  0.13519973  0.68667861  0.46100732     0.04900
C1123       C  0.13234498  0.71265722  0.44756625    -0.07400
C1124       C  0.10157427  0.73203744  0.45639810    -0.08100
C1125       C  0.07198081  0.72533326  0.47761980    -0.02700
C1126       C  0.07433717  0.69900219  0.49062445     0.04100
N1127       N  0.04265089  0.68632354  0.01274918     0.66600
H1128       H  0.10697610  0.65680162  0.99192207     0.15500
H1129       H  0.09998073  0.75200346  0.44606153     0.15200
N1130       N  0.16022127  0.71945013  0.42474510     0.74300
O1131       O  0.03689897  0.69975758  0.03504426    -0.39100
O1132       O  0.02358852  0.66344424  0.00955580    -0.39100
O1133       O  0.14752638  0.71602418  0.39982242    -0.39800
O1134       O  0.19638697  0.73052548  0.42941323    -0.39800
C1135       C  0.35775489  0.72076278  0.44721144    -0.12100
C1136       C  0.34481269  0.70005805  0.46637008     0.04900
C1137       C  0.36414418  0.69939676  0.49327075    -0.07400
C1138       C  0.39839501  0.71741193  0.49928811    -0.08100
C1139       C  0.41278541  0.73707634  0.47966368    -0.02700
C1140       C  0.39067898  0.73971640  0.45394442     0.04100
N1141       N  0.40202227  0.76104951  0.43436782     0.66600
H1142       H  0.34274987  0.72183292  0.42667190     0.15500
H1143       H  0.41647142  0.71483327  0.01798900     0.15200
N1144       N  0.35474688  0.67779302  0.01302154     0.74300
O1145       O  0.40844199  0.75519639  0.40893629    -0.39100
O1146       O  0.39869585  0.78609855  0.44148885    -0.39100
O1147       O  0.38465819  0.66363443  0.02390480    -0.39800
O1148       O  0.31793614  0.67749149  0.02423398    -0.39800
C1149       C  0.13628419  0.78988458  0.04900292    -0.12100
C1150       C  0.14961783  0.81050296  0.02989761     0.04900
C1151       C  0.13208314  0.81030487  0.00253618    -0.07400
C1152       C  0.09827298  0.79206177  0.99603087    -0.08100
C1153       C  0.08245159  0.77301282  0.01589063    -0.02700
C1154       C  0.10378427  0.77076596  0.04200913     0.04100
N1155       N  0.09180870  0.75002329  0.06201247     0.66600
H1156       H  0.15025852  0.78916710  0.06986821     0.15500
H1157       H  0.08223569  0.79410974  0.97589331     0.15200
N1158       N  0.14532723  0.83013244  0.98192524     0.79900
O1159       O  0.10701675  0.72595466  0.05938745    -0.39100
O1160       O  0.07713540  0.75726901  0.08553341    -0.39100
O1161       O  0.18017657  0.82645750  0.96886437    -0.39800
O1162       O  0.11865821  0.84777085  0.97288999    -0.39800
C1163       C  0.38821886  0.77949596  0.02900218    -0.12100
C1164       C  0.42243125  0.78904947  0.01223172     0.04900
C1165       C  0.42382701  0.81741723  0.00451377    -0.07400
C1166       C  0.39199871  0.83556221  0.01430947    -0.08100
C1167       C  0.35832378  0.82592112  0.03122991    -0.02700
C1168       C  0.35619045  0.79767605  0.03838042     0.04100
N1169       N  0.32170407  0.78728955  0.05527518     0.66600
H1170       H  0.38679556  0.75806692  0.03552211     0.15500
H1171       H  0.39350563  0.85733142  0.00868097     0.15200
N1172       N  0.45747855  0.82807893  0.98686683     0.74300
O1173       O  0.28489101  0.78357929  0.04457615    -0.39100
O1174       O  0.32712173  0.78383155  0.08130897    -0.39100
O1175       O  0.46579122  0.81651212  0.96382542    -0.39800
O1176       O  0.47557432  0.85078144  0.99268492    -0.39800
C1177       C  0.02891547  0.81245836  0.05064673    -0.12100
C1178       C  0.50220889  0.79071777  0.04446551     0.04900
C1179       C  0.48101526  0.78052863  0.06880609    -0.07400
C1180       C  0.48208383  0.79620464  0.09343081    -0.08100
C1181       C  0.50703097  0.82028221  0.09530844    -0.02700
C1182       C  0.03533835  0.82619155  0.07612024     0.04100
N1183       N  0.06790722  0.84745477  0.07773698     0.66600
H1184       H  0.04513032  0.82001226  0.03207663     0.15500
H1185       H  0.46451402  0.78903224  0.11171165     0.15200
N1186       N  0.45930098  0.75415022  0.06924347     0.74300
O1187       O  0.09529280  0.84671265  0.09734802    -0.39100
O1188       O  0.07634535  0.86206700  0.05640535    -0.39100
O1189       O  0.47492661  0.73374152  0.05639653    -0.39800
O1190       O  0.42781447  0.75014442  0.08552246    -0.39800
C1191       C  0.14595927  0.72409956  0.27891738    -0.12100
C1192       C  0.16411076  0.71715952  0.25299266     0.04900
C1193       C  0.14477361  0.69590435  0.23669153    -0.07400
C1194       C  0.10924999  0.68141118  0.24747568    -0.08100
C1195       C  0.09458265  0.68619479  0.27476002    -0.02700
C1196       C  0.11197943  0.70852372  0.29011608     0.04100
N1197       N  0.09687030  0.71472206  0.31768140     0.66600
H1198       H  0.16026832  0.74045362  0.29138165     0.15500
H1199       H  0.09633024  0.66409166  0.23572802     0.15200
N1200       N  0.16275906  0.68688137  0.21049555     0.74300
O1201       O  0.12063906  0.70998818  0.33869005    -0.39100
O1202       O  0.06196020  0.72772762  0.32077292    -0.39100
O1203       O  0.20267934  0.68275132  0.20847215    -0.39800
O1204       O  0.13833815  0.67766334  0.19144149    -0.39800
C1205       C  0.37343635  0.67110655  0.25413833    -0.12100
C1206       C  0.38888612  0.67558411  0.28129033     0.04900
C1207       C  0.37368509  0.69841719  0.29659111    -0.07400
C1208       C  0.34210568  0.71569675  0.28485210    -0.08100
C1209       C  0.32419556  0.71003568  0.25835277    -0.02700
C1210       C  0.34093630  0.68762673  0.24240710     0.04100
N1211       N  0.32499282  0.68041091  0.21491336     0.66600
H1212       H  0.38538873  0.65352812  0.24245869     0.15500
H1213       H  0.33074332  0.73324094  0.29679965     0.15200
N1214       N  0.39074857  0.70464710  0.32372255     0.74300
O1215       O  0.34712874  0.66524350  0.19894059    -0.39100
O1216       O  0.28793806  0.68750964  0.20690662    -0.39100
O1217       O  0.42331729  0.72018718  0.32595307    -0.39800
O1218       O  0.37085561  0.69693579  0.34546561    -0.39800
C1219       C  0.38735392  0.53270053  0.30675589    -0.12100
C1220       C  0.40092150  0.55245624  0.28689503     0.04900
C1221       C  0.38457344  0.55073791  0.25925802    -0.07400
C1222       C  0.35184905  0.53159344  0.25298574    -0.08100
C1223       C  0.33509257  0.51380432  0.27369443    -0.02700
C1224       C  0.35571393  0.51291302  0.30012834     0.04100
N1225       N  0.34200419  0.99496464  0.32281696     0.66600
H1226       H  0.40148341  0.53260452  0.32758519     0.15500
H1227       H  0.33703734  0.53217382  0.23236685     0.15200
N1228       N  0.39795500  0.56985976  0.23797951     0.74300
O1229       O  0.33277315  0.00297721  0.34723946    -0.39100
O1230       O  0.35527874  0.97051489  0.31974351    -0.39100
O1231       O  0.41878650  0.56130700  0.21703310    -0.39800
O1232       O  0.38543116  0.59470813  0.23870103    -0.39800
C1233       C  0.12248048  0.55995031  0.26298332    -0.12100
C1234       C  0.11078833  0.56275513  0.29122555     0.04900
C1235       C  0.12849942  0.54429058  0.31117458    -0.07400
C1236       C  0.15883932  0.52452507  0.30277971    -0.08100
C1237       C  0.17415325  0.52378933  0.27508006    -0.02700
C1238       C  0.15408668  0.54097087  0.25469673     0.04100
N1239       N  0.16498414  0.53958759  0.22551829     0.66600
H1240       H  0.10835558  0.57351910  0.24728626     0.15500
H1241       H  0.17131103  0.51014038  0.31823184     0.15200
N1242       N  0.11592231  0.54523384  0.33998345     0.74300
O1243       O  0.13527979  0.53792992  0.20743341    -0.39100
O1244       O  0.20273693  0.54514108  0.21752584    -0.39100
O1245       O  0.09172528  0.52656448  0.34985051    -0.39800
O1246       O  0.13496220  0.56159948  0.35647220    -0.39800
C1247       C  0.01039212  0.71155246  0.39814176    -0.12100
C1248       C  0.48837298  0.68420576  0.40078037     0.04900
C1249       C  0.46677004  0.67680470  0.42596193    -0.07400
C1250       C  0.47009737  0.69415364  0.44933340    -0.08100
C1251       C  0.49024392  0.72008418  0.44757148    -0.02700
C1252       C  0.00965918  0.73036464  0.42059545     0.04100
N1253       N  0.02715711  0.75780244  0.41646427     0.66600
H1254       H  0.02575186  0.71736508  0.37858262     0.15500
H1255       H  0.45614502  0.68746908  0.46900923     0.15200
N1256       N  0.44169442  0.65183461  0.42846018     0.74300
O1257       O  0.05350082  0.76245583  0.39682494    -0.39100
O1258       O  0.01349888  0.77802585  0.43054525    -0.39100
O1259       O  0.44456308  0.63727263  0.45045553    -0.39800
O1260       O  0.40919543  0.64855940  0.41283543    -0.39800
C1261       C  0.37291518  0.55462353  0.44790946    -0.12100
C1262       C  0.36116639  0.57538848  0.46689623     0.04900
C1263       C  0.37981703  0.57493922  0.49409663    -0.07400
C1264       C  0.41066726  0.55462613  0.50090422    -0.08100
C1265       C  0.42269686  0.53396190  0.48182598    -0.02700
C1266       C  0.40244075  0.53373795  0.45513933     0.04100
N1267       N  0.40879408  0.51177502  0.43565226     0.66600
H1268       H  0.35799246  0.55414025  0.42731264     0.15500
H1269       H  0.42150267  0.55162839  0.02179445     0.15200
N1270       N  0.36645596  0.59246380  0.01465729     0.74300
O1271       O  0.39190513  0.48859448  0.44098649    -0.39100
O1272       O  0.41746501  0.51764425  0.41043943    -0.39100
O1273       O  0.33219798  0.59717702  0.52429808    -0.39800
O1274       O  0.39644714  0.60454716  0.02775396    -0.39800
C1275       C  0.12876149  0.57283465  0.49972490    -0.12100
C1276       C  0.14971242  0.56597193  0.47464370     0.04900
C1277       C  0.13863994  0.54091423  0.46129516    -0.07400
C1278       C  0.10544928  0.52422944  0.47210142    -0.08100
C1279       C  0.08142071  0.53252050  0.49548715    -0.02700
C1280       C  0.09403144  0.55691247  0.51003502     0.04100
N1281       N  0.05961656  0.56961888  0.02686207     0.66600
H1282       H  0.13696232  0.59212606  0.51000607     0.15500
H1283       H  0.09649036  0.50557815  0.46098446     0.15200
N1284       N  0.16047213  0.53215100  0.43656054     0.74300
O1285       O  0.05292085  0.55647622  0.04934552    -0.39100
O1286       O  0.04660864  0.59431789  0.02480431    -0.39100
O1287       O  0.18253797  0.51022502  0.43737258    -0.39800
O1288       O  0.14939117  0.54206571  0.41309758    -0.39800
C1289       C  0.51328631  0.54391304  0.40562316    -0.12100
C1290       C  0.01440330  0.57339968  0.40926238     0.04900
C1291       C  0.02676530  0.58528019  0.43525542    -0.07400
C1292       C  0.01996125  0.56999779  0.45988184    -0.08100
C1293       C  0.00790946  0.54208909  0.45876603    -0.02700
C1294       C  0.51181609  0.52792486  0.43007717     0.04100
N1295       N  0.51798413  0.99976312  0.42828311     0.66600
H1296       H  0.51179211  0.53386664  0.38534234     0.15500
H1297       H  0.02572673  0.57955955  0.48002778     0.15200
N1298       N  0.04663160  0.61222707  0.43718061     0.74300
O1299       O  0.49017425  0.98355726  0.43836671    -0.39100
O1300       O  0.54819984  0.99000522  0.41366620    -0.39100
O1301       O  0.04145273  0.62658205  0.45899189    -0.39800
O1302       O  0.07761972  0.61830383  0.42118737    -0.39800
C1303       C  0.38735346  0.98677461  0.03989663    -0.12100
C1304       C  0.41298526  0.98013153  0.01676752     0.04900
C1305       C  0.40163799  0.95698089  0.99989999    -0.07400
C1306       C  0.36486204  0.94137828  0.00677788    -0.08100
C1307       C  0.34161338  0.94668416  0.03127888    -0.02700
C1308       C  0.35278976  0.96979375  0.04771871     0.04100
N1309       N  0.33077675  0.97541104  0.07327838     0.66600
H1310       H  0.40044320  0.50216625  0.05373588     0.15500
H1311       H  0.35728756  0.92301171  0.99470249     0.15200
N1312       N  0.42872425  0.94737059  0.97744104     0.74300
O1313       O  0.35335224  0.46910121  0.09674792    -0.39100
O1314       O  0.30185934  0.99374971  0.07354220    -0.39100
O1315       O  0.46916981  0.94727509  0.98020725    -0.39800
O1316       O  0.41343610  0.93651925  0.45525957    -0.39800
C1317       C  0.07999530  0.95822843  0.50736031    -0.12100
C1318       C  0.07202834  0.97842712  0.02668611     0.04900
C1319       C  0.09074721  0.97653288  0.05367920    -0.07400
C1320       C  0.12070065  0.95548388  0.05940099    -0.08100
C1321       C  0.13295102  0.93641834  0.03871375    -0.02700
C1322       C  0.11445969  0.93854377  0.01169132     0.04100
N1323       N  0.11482120  0.91526171  0.49340703     0.66600
H1324       H  0.06114013  0.95716376  0.48819657     0.15500
H1325       H  0.13487904  0.95417024  0.08018461     0.15200
N1326       N  0.08003700  0.99563709  0.07543311     0.74300
O1327       O  0.09030828  0.89450542  0.49578265    -0.39100
O1328       O  0.13586994  0.91876874  0.47104978    -0.39100
O1329       O  0.07335374  0.98682788  0.10003016    -0.39800
O1330       O  0.12619546  0.52549300  0.05620856    -0.39800
C1331       C  0.49233959  0.96078554  0.10441635    -0.12100
C1332       C  0.98489173  0.93136753  0.09892166     0.04900
C1333       C  0.98897540  0.92091482  0.07132557    -0.07400
C1334       C  0.99276125  0.93955349  0.04874559    -0.08100
C1335       C  0.98777031  0.96803805  0.05250111    -0.02700
C1336       C  0.49051759  0.97938855  0.08150910     0.04100
N1337       N  0.49148984  0.00877823  0.08670245     0.66600
H1338       H  0.49763457  0.96837765  0.12506819     0.15500
H1339       H  0.99859811  0.93185289  0.02782833     0.15200
N1340       N  0.98625517  0.89171711  0.06558921     0.74300
O1341       O  0.46887227  0.02498852  0.07192992    -0.39100
O1342       O  0.50902139  0.01807347  0.10866759    -0.39100
O1343       O  0.96303657  0.87632089  0.08077634    -0.39800
O1344       O  0.99822801  0.88264712  0.04208521    -0.39800
C1345       C  0.99234240  0.98771699  0.52814060     0.02400
C1346       C  0.03403589  0.99753691  0.52076842     0.02400
C1347       C  0.03840111  0.51730653  0.99861183     0.02400
C1348       C  0.50069854  0.52344509  0.98182725     0.02400
C1349       C  0.45915505  0.51419612  0.98974735     0.02400
C1350       C  0.45694436  0.99617837  0.51154814     0.02400
Fe1351     Fe  0.44667155  0.61920831  0.84260636     1.65800
Fe1352     Fe  0.05720275  0.63113920  0.84248481     1.73200
Fe1353     Fe  0.50015771  0.61885315  0.77977034     1.54400
O1354       O  0.45721077  0.58575860  0.77905235    -0.81500
O1355       O  0.07571348  0.66147765  0.81467029    -0.79800
O1356       O  0.42337075  0.58614890  0.81999165    -0.84000
O1357       O  0.41597109  0.64762505  0.81683133    -0.78900
O1358       O  0.05052771  0.59123866  0.78173848    -0.80600
O1359       O  0.03158047  0.66204800  0.86780613    -0.83400
C1360       C  0.42127402  0.65605476  0.79177117     0.97400
C1361       C  0.42929662  0.57604894  0.79584831     1.04800
O1362       O  0.00219373  0.62321129  0.82303486    -1.12400
O1363       O  0.04656086  0.60262661  0.87345903    -0.74800
O1364       O  0.47250605  0.59159801  0.87128835    -0.78300
O1365       O  0.45056627  0.64686997  0.77573519    -0.79000
C1366       C  0.01419104  0.59003237  0.88326658     0.96300
O1367       O  0.46104486  0.65107893  0.86902451    -0.76900
O1368       O  0.08897402  0.60015899  0.82039925    -0.82100
C1369       C  0.06905058  0.66622302  0.78891383     0.98900
C1370       C  0.08207503  0.58638928  0.79808821     1.04800
O1371       O  0.04291302  0.65200019  0.77439570    -0.77800
C1372       C  0.49366975  0.66480118  0.87651136     1.03100
C1373       C  0.49268126  0.73837271  0.97205991     0.02400
C1374       C  0.03428702  0.74124945  0.98837864     0.02400
C1375       C  0.04022247  0.76399257  0.50601727     0.02400
C1376       C  0.50137641  0.77495653  0.51826113     0.02400
C1377       C  0.46032254  0.77014706  0.50606035     0.02400
C1378       C  0.45499818  0.75041727  0.98374453     0.02400
Fe1379     Fe  0.44547584  0.87008381  0.65952802     1.65800
Fe1380     Fe  0.05338620  0.87930210  0.65926381     1.73200
Fe1381     Fe  0.50118060  0.86974794  0.72212810     1.54400
O1382       O  0.45018170  0.89703680  0.72618611    -0.81500
O1383       O  0.08593838  0.84819343  0.68106095    -0.79800
O1384       O  0.41717232  0.89951685  0.68446827    -0.84000
O1385       O  0.42194085  0.83821972  0.68369264    -0.78900
O1386       O  0.04251008  0.90391933  0.72700933    -0.80600
O1387       O  0.03851855  0.85105903  0.62886105    -0.83400
C1388       C  0.42928183  0.82694587  0.70723762     0.97400
C1389       C  0.42171679  0.90703838  0.70978244     1.04800
O1390       O  0.99973390  0.87269586  0.68048263    -1.12400
O1391       O  0.02737159  0.91055499  0.63425034    -0.74800
O1392       O  0.45976404  0.90094439  0.63122685    -0.78300
O1393       O  0.45876619  0.83565522  0.72367830    -0.79000
C1394       C  0.98997072  0.91420889  0.62392439     0.96300
O1395       O  0.46869680  0.84103113  0.63192722    -0.76900
O1396       O  0.07519200  0.90928557  0.68598294    -0.82100
C1397       C  0.08227870  0.83624435  0.70481902     0.98900
C1398       C  0.06880356  0.91671776  0.71102577     1.04800
O1399       O  0.05255290  0.84214380  0.72214559    -0.77800
C1400       C  0.50543386  0.83805925  0.62065961     1.03100
C1401       C  0.25374221  0.51397908  0.77852947     0.02400
C1402       C  0.21238937  0.50618119  0.76782867     0.02400
C1403       C  0.20907289  0.98497281  0.74832791     0.02400
C1404       C  0.24696268  0.97286675  0.73706353     0.02400
C1405       C  0.28796179  0.97990966  0.74828657     0.02400
C1406       C  0.29172574  0.50096745  0.76858740     0.02400
Fe1407     Fe  0.30128540  0.88531262  0.59062783     1.65800
Fe1408     Fe  0.19362974  0.87390379  0.59076142     1.73200
Fe1409     Fe  0.24607635  0.88181619  0.52797991     1.54400
O1410       O  0.28519345  0.91668740  0.52555538    -0.81500
O1411       O  0.16911798  0.84565279  0.56258021    -0.79800
O1412       O  0.32407424  0.91623423  0.56488711    -0.84000
O1413       O  0.33151577  0.85511980  0.56697695    -0.78900
O1414       O  0.19213870  0.90765783  0.52731042    -0.80600
O1415       O  0.21940036  0.84112261  0.61252418    -0.83400
C1416       C  0.32826670  0.84714604  0.54164238     0.97400
C1417       C  0.31511476  0.92621133  0.54098402     1.04800
O1418       O  0.24705113  0.88042909  0.56963036    -1.12400
O1419       O  0.20966143  0.90018966  0.62359730    -0.74800
O1420       O  0.27632422  0.91570637  0.61649396    -0.78300
O1421       O  0.29959318  0.85609718  0.52472145    -0.79000
C1422       C  0.24140053  0.91542896  0.63033685     0.96300
O1423       O  0.28669104  0.85535108  0.62015312    -0.76900
O1424       O  0.16376866  0.90637899  0.57052256    -0.82100
C1425       C  0.17771154  0.83657439  0.53835265     0.98900
C1426       C  0.16509180  0.91586747  0.54559930     1.04800
O1427       O  0.20747849  0.84691420  0.52344878    -0.77800
C1428       C  0.25520892  0.83939975  0.62528979     1.03100
C1429       C  0.24654640  0.71928636  0.75823772     0.02400
C1430       C  0.28780335  0.72735049  0.74820870     0.02400
C1431       C  0.29168633  0.74813986  0.72727403     0.02400
C1432       C  0.25342019  0.75866713  0.71444943     0.02400
C1433       C  0.21183563  0.75073506  0.72428008     0.02400
C1434       C  0.20874573  0.72966526  0.74497610     0.02400
Fe1435     Fe  0.30262137  0.63488240  0.90714152     1.65800
Fe1436     Fe  0.19447717  0.62332703  0.90740311     1.73200
Fe1437     Fe  0.24844793  0.63132796  0.96986684     1.54400
O1438       O  0.30093063  0.60456686  0.97314965    -0.81500
O1439       O  0.16418633  0.65573203  0.92789682    -0.79800
O1440       O  0.33334124  0.60465227  0.93132346    -0.84000
O1441       O  0.32558192  0.66625195  0.93218416    -0.78900
O1442       O  0.20777419  0.59742706  0.97519236    -0.80600
O1443       O  0.21024467  0.64986575  0.87450804    -0.83400
C1444       C  0.31757749  0.67599918  0.95618112     0.97400
C1445       C  0.32986650  0.59578976  0.95650134     1.04800
O1446       O  0.24847440  0.62986345  0.92826935    -1.12400
O1447       O  0.22035656  0.59057278  0.88535805    -0.74800
O1448       O  0.28773563  0.60493103  0.87768701    -0.78300
O1449       O  0.28862007  0.66584240  0.97192926    -0.79000
C1450       C  0.25610805  0.58903662  0.87251577     0.96300
O1451       O  0.27724931  0.66520571  0.88089237    -0.76900
O1452       O  0.16948889  0.59494956  0.93580180    -0.82100
C1453       C  0.16697210  0.66529893  0.95271324     0.98900
C1454       C  0.17749054  0.58706474  0.96066660     1.04800
O1455       O  0.19561471  0.65770463  0.97035514    -0.77800
C1456       C  0.24199178  0.66491639  0.86729792     1.03100
C1457       C  0.24906425  0.72064261  0.81056545    -0.12100
C1458       C  0.24319628  0.70474962  0.78611399     0.04900
C1459       C  0.23329779  0.67628682  0.78907347    -0.07400
C1460       C  0.23047752  0.66446723  0.81599013    -0.08100
C1461       C  0.23924945  0.67997251  0.84018891    -0.02700
C1462       C  0.24827620  0.70841295  0.83738042     0.04100
N1463       N  0.25559432  0.72523381  0.86152064     0.66600
H1464       H  0.25536791  0.74266861  0.80871747     0.15500
H1465       H  0.22383560  0.64248673  0.81793603     0.15200
N1466       N  0.22813821  0.65868329  0.76525118     0.74300
O1467       O  0.29360191  0.72924452  0.87009876    -0.39100
O1468       O  0.22545235  0.74011801  0.87076997    -0.39100
O1469       O  0.26012310  0.65422371  0.74966135    -0.39800
O1470       O  0.19635291  0.64235146  0.76415404    -0.39800
C1471       C  0.27034563  0.80552746  0.69617306    -0.12100
C1472       C  0.25641072  0.77846787  0.69061576     0.04900
C1473       C  0.24562075  0.77082167  0.66264143    -0.07400
C1474       C  0.24546774  0.79144373  0.64179764    -0.08100
C1475       C  0.25976009  0.81831881  0.64740866    -0.02700
C1476       C  0.27431573  0.82509435  0.67462669     0.04100
N1477       N  0.29251444  0.85169505  0.68090109     0.66600
H1478       H  0.27931242  0.81123085  0.71737085     0.15500
H1479       H  0.23538735  0.78641978  0.62062618     0.15200
N1480       N  0.23708698  0.74250019  0.65449080     0.74300
O1481       O  0.28016166  0.86455138  0.70242169    -0.39100
O1482       O  0.32735847  0.85891496  0.66933945    -0.39100
O1483       O  0.24419838  0.72258883  0.67102637    -0.39800
O1484       O  0.22598882  0.73697924  0.62960175    -0.39800
C1485       C  0.22557586  0.91753979  0.68118856    -0.12100
C1486       C  0.23873769  0.93150740  0.65673028     0.04900
C1487       C  0.25303957  0.95919631  0.65879932    -0.07400
C1488       C  0.25562585  0.97168953  0.68532878    -0.08100
C1489       C  0.24485667  0.95722470  0.70999081    -0.02700
C1490       C  0.22916077  0.92986428  0.70773501     0.04100
N1491       N  0.21731360  0.91412721  0.73200024     0.66600
H1492       H  0.21441088  0.89629543  0.67982044     0.15500
H1493       H  0.26525054  0.99322778  0.68679412     0.15200
N1494       N  0.26277595  0.97532769  0.63423644     0.74300
O1495       O  0.18090431  0.90246284  0.73275187    -0.39100
O1496       O  0.24628617  0.90620524  0.74880078    -0.39100
O1497       O  0.23961214  0.97305527  0.61253992    -0.39800
O1498       O  0.28996751  0.99477945  0.63556682    -0.39800
C1499       C  0.25021181  0.52367818  0.82921842    -0.12100
C1500       C  0.25702031  0.53417475  0.80206032     0.04900
C1501       C  0.26838230  0.56250629  0.79858831    -0.07400
C1502       C  0.26964904  0.57956164  0.82245532    -0.08100
C1503       C  0.26030824  0.56917962  0.84930507    -0.02700
C1504       C  0.25199342  0.54074681  0.85290050     0.04100
N1505       N  0.24745846  0.52871967  0.88037842     0.66600
H1506       H  0.24402729  0.50171801  0.83193954     0.15500
H1507       H  0.27657148  0.60145337  0.82002532     0.15200
N1508       N  0.27888394  0.57442790  0.77162423     0.74300
O1509       O  0.22483973  0.50720725  0.88378177    -0.39100
O1510       O  0.27100049  0.53697545  0.90033539    -0.39100
O1511       O  0.26781502  0.56279900  0.74910943    -0.39800
O1512       O  0.29920119  0.59708409  0.77017930    -0.39800
C1513       C  0.17532571  0.79477587  0.73677892    -0.12100
C1514       C  0.17502459  0.77075866  0.72014744     0.04900
C1515       C  0.14171997  0.76789695  0.69995110    -0.07400
C1516       C  0.11232465  0.78963279  0.69547369    -0.08100
C1517       C  0.11310983  0.81366341  0.71184045    -0.02700
C1518       C  0.14421897  0.81582001  0.73349151     0.04100
N1519       N  0.14535718  0.83922740  0.75197698     0.66600
H1520       H  0.20001724  0.79701317  0.75275761     0.15500
H1521       H  0.08783290  0.78740516  0.67935127     0.15200
N1522       N  0.13471282  0.74274802  0.68503956     0.74300
O1523       O  0.11139634  0.84701275  0.76412808    -0.39100
O1524       O  0.18114797  0.84872727  0.76019873    -0.39100
O1525       O  0.10206484  0.72853476  0.69162156    -0.39800
O1526       O  0.14850162  0.74102023  0.66026888    -0.39800
C1527       C  0.38860363  0.78465085  0.69347258    -0.12100
C1528       C  0.40111045  0.80293697  0.71486425     0.04900
C1529       C  0.38172727  0.79999037  0.74145114    -0.07400
C1530       C  0.34860576  0.78031927  0.74549980    -0.08100
C1531       C  0.33408000  0.76318558  0.72347940    -0.02700
C1532       C  0.35595478  0.76481197  0.69747001     0.04100
N1533       N  0.34532445  0.74691602  0.67464607     0.66600
H1534       H  0.40371919  0.78625442  0.67304012     0.15500
H1535       H  0.33200394  0.77979083  0.76547878     0.15200
N1536       N  0.39209115  0.81864767  0.76365798     0.74300
O1537       O  0.33788691  0.75733802  0.65078313    -0.39100
O1538       O  0.35683143  0.72193825  0.67602452    -0.39100
O1539       O  0.37147806  0.84103004  0.76605267    -0.39800
O1540       O  0.41756474  0.81112364  0.78291316    -0.39800
C1541       C  0.37195359  0.92252179  0.74690594    -0.12100
C1542       C  0.39133963  0.92762505  0.72091006     0.04900
C1543       C  0.37920244  0.95115007  0.70524782    -0.07400
C1544       C  0.34743469  0.96884279  0.71554526    -0.08100
C1545       C  0.32585288  0.96281663  0.74067734    -0.02700
C1546       C  0.33855666  0.93939727  0.75695039     0.04100
N1547       N  0.31785949  0.93179175  0.78306403     0.66600
H1548       H  0.38130196  0.90422274  0.75867491     0.15500
H1549       H  0.33850804  0.48680609  0.70395666     0.15200
N1550       N  0.39877507  0.95725920  0.67880682     0.74300
O1551       O  0.28144307  0.94126957  0.78971661    -0.39100
O1552       O  0.33584410  0.91483458  0.79961360    -0.39100
O1553       O  0.37885591  0.95189157  0.65634842    -0.39800
O1554       O  0.43785096  0.46789185  0.67949755    -0.39800
C1555       C  0.10578619  0.94166577  0.75055340    -0.12100
C1556       C  0.09561010  0.94018944  0.72183975     0.04900
C1557       C  0.11725386  0.95839997  0.70313674    -0.07400
C1558       C  0.15181981  0.97452288  0.71269338    -0.08100
C1559       C  0.16581226  0.97316649  0.74065247    -0.02700
C1560       C  0.14091054  0.95766918  0.76011820     0.04100
N1561       N  0.15288596  0.95591068  0.78915698     0.66600
H1562       H  0.08928353  0.92821991  0.76530028     0.15500
H1563       H  0.16940826  0.98711687  0.69773515     0.15200
N1564       N  0.10562573  0.96002924  0.67407295     0.74300
O1565       O  0.12430057  0.95761112  0.80787509    -0.39100
O1566       O  0.19050900  0.94859249  0.79601570    -0.39100
O1567       O  0.06900477  0.96911900  0.66704719    -0.39800
O1568       O  0.13331335  0.95505771  0.65539822    -0.39800
C1569       C  0.10526746  0.67748906  0.98302732    -0.12100
C1570       C  0.13436380  0.68541001  0.96202704     0.04900
C1571       C  0.13168991  0.71218019  0.95036626    -0.07400
C1572       C  0.10080271  0.73089222  0.96032342    -0.08100
C1573       C  0.07101084  0.72282433  0.98094013    -0.02700
C1574       C  0.07329576  0.69575593  0.99231924     0.04100
N1575       N  0.04292408  0.69045808  0.51085091     0.66600
H1576       H  0.10789680  0.66009579  0.49281201     0.15500
H1577       H  0.09909706  0.75138614  0.95114432     0.15200
N1578       N  0.15968780  0.72041098  0.92809414     0.74300
O1579       O  0.04929987  0.69526421  0.53649168    -0.39100
O1580       O  0.01479991  0.67281046  0.50405730    -0.39100
O1581       O  0.14989164  0.71467204  0.90306459    -0.39800
O1582       O  0.19141555  0.73603433  0.93307339    -0.39800
C1583       C  0.35687446  0.72026583  0.94683912    -0.12100
C1584       C  0.34487986  0.69936640  0.96605809     0.04900
C1585       C  0.36498378  0.69872596  0.99269703    -0.07400
C1586       C  0.39875155  0.71716708  0.99849822    -0.08100
C1587       C  0.41221790  0.73706070  0.97881451    -0.02700
C1588       C  0.38956125  0.73948981  0.95328057     0.04100
N1589       N  0.40026401  0.76078381  0.93352066     0.66600
H1590       H  0.34140323  0.72123731  0.92643867     0.15500
H1591       H  0.41556214  0.71503739  0.51899048     0.15200
N1592       N  0.35233029  0.67899051  0.51379414     0.74300
O1593       O  0.40789295  0.75469154  0.90829249    -0.39100
O1594       O  0.39517264  0.78583529  0.94017192    -0.39100
O1595       O  0.38131293  0.66486791  0.52574265    -0.39800
O1596       O  0.31495704  0.67932178  0.52419073    -0.39800
C1597       C  0.13522787  0.79367732  0.54682938    -0.12100
C1598       C  0.15071385  0.81340623  0.52758399     0.04900
C1599       C  0.13540134  0.81252408  0.49965866    -0.07400
C1600       C  0.10141208  0.79451304  0.49264758    -0.08100
C1601       C  0.08361107  0.77619861  0.51253750    -0.02700
C1602       C  0.10288099  0.77471182  0.53942279     0.04100
N1603       N  0.09008228  0.75432848  0.55955817     0.66600
H1604       H  0.14777961  0.79334233  0.56808537     0.15500
H1605       H  0.08721306  0.79591123  0.47188424     0.15200
N1606       N  0.15191137  0.83093445  0.47866842     0.79900
O1607       O  0.10613350  0.73044134  0.55762618    -0.39100
O1608       O  0.07640125  0.76214186  0.58314585    -0.39100
O1609       O  0.18879895  0.82657001  0.46850067    -0.39800
O1610       O  0.12682949  0.84762823  0.46639154    -0.39800
C1611       C  0.38934575  0.78016673  0.52986650    -0.12100
C1612       C  0.42381096  0.78923928  0.51302435     0.04900
C1613       C  0.42573867  0.81756714  0.50505095    -0.07400
C1614       C  0.39393087  0.83601344  0.51440213    -0.08100
C1615       C  0.35989001  0.82684712  0.53127873    -0.02700
C1616       C  0.35745007  0.79869490  0.53888101     0.04100
N1617       N  0.32262452  0.78871263  0.55572836     0.66600
H1618       H  0.38759320  0.75882177  0.53667068     0.15500
H1619       H  0.39582257  0.85770653  0.50853090     0.15200
N1620       N  0.45997523  0.82795648  0.48768503     0.74300
O1621       O  0.28584200  0.78519043  0.54491848    -0.39100
O1622       O  0.32779246  0.78530085  0.58178926    -0.39100
O1623       O  0.47024015  0.81541362  0.46553358    -0.39800
O1624       O  0.47680591  0.85123271  0.49275008    -0.39800
C1625       C  0.02568942  0.81750605  0.54493564    -0.12100
C1626       C  0.50371258  0.79056267  0.54504779     0.04900
C1627       C  0.48306261  0.78052081  0.56960998    -0.07400
C1628       C  0.48430543  0.79648778  0.59403685    -0.08100
C1629       C  0.50874971  0.82082755  0.59535425    -0.02700
C1630       C  0.02964538  0.83220267  0.57004265     0.04100
N1631       N  0.05457224  0.85734775  0.57012165     0.66600
H1632       H  0.04014219  0.82579612  0.52600567     0.15500
H1633       H  0.46722778  0.78940657  0.61255224     0.15200
N1634       N  0.46173591  0.75401451  0.57040617     0.74300
O1635       O  0.08709031  0.85922542  0.58596105    -0.39100
O1636       O  0.05109398  0.87423235  0.54994689    -0.39100
O1637       O  0.47766042  0.73352081  0.55782263    -0.39800
O1638       O  0.43019312  0.75007910  0.58665394    -0.39800
C1639       C  0.14746337  0.72540624  0.77822429    -0.12100
C1640       C  0.16627037  0.71760200  0.75274413     0.04900
C1641       C  0.14737940  0.69578717  0.73701109    -0.07400
C1642       C  0.11173356  0.68156705  0.74798921    -0.08100
C1643       C  0.09601571  0.68743222  0.77482943    -0.02700
C1644       C  0.11278850  0.71043097  0.78945328     0.04100
N1645       N  0.09569873  0.71828367  0.81608599     0.66600
H1646       H  0.16132212  0.74229410  0.79016082     0.15500
H1647       H  0.09925865  0.66380904  0.73672205     0.15200
N1648       N  0.16553691  0.68622805  0.71104820     0.74300
O1649       O  0.11929913  0.71750109  0.83768922    -0.39100
O1650       O  0.05836108  0.72852190  0.81755226    -0.39100
O1651       O  0.20556792  0.68260520  0.70895193    -0.39800
O1652       O  0.14127879  0.67650046  0.69216835    -0.39800
C1653       C  0.37560298  0.67241595  0.75283341    -0.12100
C1654       C  0.39090759  0.67654351  0.78006784     0.04900
C1655       C  0.37571923  0.69921183  0.79562912    -0.07400
C1656       C  0.34412641  0.71661348  0.78410495    -0.08100
C1657       C  0.32635889  0.71132908  0.75749234    -0.02700
C1658       C  0.34317943  0.68912827  0.74126058     0.04100
N1659       N  0.32719995  0.68219636  0.71369731     0.66600
H1660       H  0.38746680  0.65489832  0.74101041     0.15500
H1661       H  0.33270744  0.73399355  0.79627352     0.15200
N1662       N  0.39276953  0.70511072  0.82284940     0.74300
O1663       O  0.34927299  0.66713588  0.69758545    -0.39100
O1664       O  0.29020236  0.68947136  0.70572995    -0.39100
O1665       O  0.42858883  0.71732644  0.82520216    -0.39800
O1666       O  0.37066298  0.70000294  0.84445430    -0.39800
C1667       C  0.38605294  0.53398282  0.80749769    -0.12100
C1668       C  0.40098440  0.55271085  0.78707225     0.04900
C1669       C  0.38570763  0.55000141  0.75927399    -0.07400
C1670       C  0.35283612  0.53088199  0.75322978    -0.08100
C1671       C  0.33492840  0.51398403  0.77431827    -0.02700
C1672       C  0.35426184  0.51420286  0.80122751     0.04100
N1673       N  0.34508960  0.99241361  0.82127925     0.66600
H1674       H  0.39921398  0.53472932  0.82857697     0.15500
H1675       H  0.33883546  0.53082090  0.73237000     0.15200
N1676       N  0.40034629  0.56812904  0.73747874     0.74300
O1677       O  0.33361836  0.99902328  0.84572520    -0.39100
O1678       O  0.36207042  0.96898742  0.81772819    -0.39100
O1679       O  0.42374395  0.55883492  0.71806430    -0.39800
O1680       O  0.38678007  0.59274039  0.73621028    -0.39800
C1681       C  0.12400906  0.56086297  0.76215414    -0.12100
C1682       C  0.11232302  0.56395598  0.79036365     0.04900
C1683       C  0.12891432  0.54515193  0.81036268    -0.07400
C1684       C  0.15839878  0.52478448  0.80210644    -0.08100
C1685       C  0.17391407  0.52370173  0.77445730    -0.02700
C1686       C  0.15475283  0.54121350  0.75398388     0.04100
N1687       N  0.16566945  0.53944935  0.72483231     0.66600
H1688       H  0.11046394  0.57462952  0.74641564     0.15500
H1689       H  0.17003896  0.51016552  0.81761300     0.15200
N1690       N  0.11530682  0.54599939  0.83896859     0.74300
O1691       O  0.13598116  0.53810221  0.70670968    -0.39100
O1692       O  0.20377004  0.54394908  0.71685475    -0.39100
O1693       O  0.08711666  0.52911084  0.84751518    -0.39800
O1694       O  0.13664878  0.55992937  0.85654069    -0.39800
C1695       C  0.00991264  0.71011041  0.90179625    -0.12100
C1696       C  0.48852973  0.68490003  0.89962291     0.04900
C1697       C  0.46512398  0.67812048  0.92430439    -0.07400
C1698       C  0.46895673  0.69520065  0.94781509    -0.08100
C1699       C  0.48998592  0.72084326  0.94632796    -0.02700
C1700       C  0.00859085  0.72832585  0.92473334     0.04100
N1701       N  0.02596665  0.75588074  0.92142310     0.66600
H1702       H  0.02605324  0.71637318  0.88264575     0.15500
H1703       H  0.45441710  0.68862902  0.96731983     0.15200
N1704       N  0.43725204  0.65429755  0.92605891     0.74300
O1705       O  0.05255543  0.76111304  0.90207528    -0.39100
O1706       O  0.01159145  0.77572535  0.93572330    -0.39100
O1707       O  0.43543798  0.64050314  0.94859770    -0.39800
O1708       O  0.40653981  0.65194211  0.90881573    -0.39800
C1709       C  0.37322791  0.55347468  0.94693603    -0.12100
C1710       C  0.36018519  0.57364331  0.96627064     0.04900
C1711       C  0.37711159  0.57223261  0.99390973    -0.07400
C1712       C  0.40730416  0.55157736  0.00097490    -0.08100
C1713       C  0.42075879  0.53159016  0.98155288    -0.02700
C1714       C  0.40247064  0.53238245  0.95426096     0.04100
N1715       N  0.41120993  0.51141582  0.93401274     0.66600
H1716       H  0.35977560  0.55372022  0.92591316     0.15500
H1717       H  0.42609920  0.55523060  0.52133828     0.15200
N1718       N  0.36994952  0.59556913  0.51464683     0.74300
O1719       O  0.39619035  0.48749855  0.93817674    -0.39100
O1720       O  0.42063737  0.51846781  0.90922915    -0.39100
O1721       O  0.32884599  0.59302031  0.02466656    -0.39800
O1722       O  0.40035859  0.60690047  0.52803096    -0.39800
C1723       C  0.12217074  0.57500445  0.99619402    -0.12100
C1724       C  0.14796715  0.56650460  0.97373298     0.04900
C1725       C  0.14037075  0.54029663  0.96175828    -0.07400
C1726       C  0.10722974  0.52321881  0.97209618    -0.08100
C1727       C  0.08007999  0.53221430  0.99369033    -0.02700
C1728       C  0.08794632  0.55847468  0.00599079     0.04100
N1729       N  0.07048289  0.56708011  0.53391815     0.66600
H1730       H  0.12702506  0.59540625  0.00509636     0.15500
H1731       H  0.10104514  0.50348905  0.96212090     0.15200
N1732       N  0.16527635  0.53111054  0.93848999     0.74300
O1733       O  0.08965178  0.58120066  0.55240426    -0.39100
O1734       O  0.03005367  0.56451230  0.53538260    -0.39100
O1735       O  0.20269206  0.52171135  0.94263069    -0.39800
O1736       O  0.14754954  0.52817325  0.91482029    -0.39800
C1737       C  0.51565007  0.54385136  0.90550085    -0.12100
C1738       C  0.02012416  0.57371695  0.90877807     0.04900
C1739       C  0.02016749  0.58651373  0.93545469    -0.07400
C1740       C  0.01031502  0.57020275  0.95895918    -0.08100
C1741       C  0.00792297  0.54140030  0.95684552    -0.02700
C1742       C  0.51354956  0.52732620  0.92963099     0.04100
N1743       N  0.51209197  0.99727969  0.92855463     0.66600
H1744       H  0.51762073  0.53417110  0.88507395     0.15500
H1745       H  0.00647752  0.57970493  0.97927915     0.15200
N1746       N  0.03190686  0.61523071  0.93925054     0.74300
O1747       O  0.48286966  0.98158790  0.93771611    -0.39100
O1748       O  0.54251381  0.98703325  0.91447239    -0.39100
O1749       O  0.02579564  0.62670363  0.96264405    -0.39800
O1750       O  0.05685755  0.62706648  0.92209330    -0.39800
C1751       C  0.39044737  0.98774353  0.53907364    -0.12100
C1752       C  0.41546958  0.98130637  0.51561376     0.04900
C1753       C  0.40353927  0.95844308  0.49852309    -0.07400
C1754       C  0.36669071  0.94293395  0.50546242    -0.08100
C1755       C  0.34372005  0.94820055  0.53008814    -0.02700
C1756       C  0.35546958  0.97103891  0.54672726     0.04100
N1757       N  0.33314055  0.97682621  0.57212102     0.66600
H1758       H  0.39632500  0.50601911  0.55115348     0.15500
H1759       H  0.35875945  0.92470701  0.49327037     0.15200
N1760       N  0.43025696  0.94893755  0.47584494     0.74300
O1761       O  0.34932004  0.47236820  0.59477127    -0.39100
O1762       O  0.29886042  0.99082141  0.57119696    -0.39100
O1763       O  0.47063619  0.94798384  0.47876094    -0.39800
O1764       O  0.41232550  0.93439567  0.95706352    -0.39800
C1765       C  0.08431600  0.95935230  0.00609489    -0.12100
C1766       C  0.07174714  0.97930352  0.52687724     0.04900
C1767       C  0.09581392  0.97982227  0.55213080    -0.07400
C1768       C  0.12625069  0.95898528  0.55748499    -0.08100
C1769       C  0.13393542  0.93782658  0.53811043    -0.02700
C1770       C  0.11066041  0.93761735  0.51272353     0.04100
N1771       N  0.12279624  0.91843440  0.99042069     0.66600
H1772       H  0.06887162  0.95990994  0.98567048     0.15500
H1773       H  0.14456254  0.95951485  0.57689232     0.15200
N1774       N  0.09106297  0.00143571  0.57226435     0.74300
O1775       O  0.09172487  0.90474241  0.98036884    -0.39100
O1776       O  0.15801923  0.91921018  0.97725027    -0.39100
O1777       O  0.08980861  0.99525937  0.59802666    -0.39800
O1778       O  0.10578785  0.52525641  0.56957640    -0.39800
C1779       C  0.49798022  0.96157793  0.60296586    -0.12100
C1780       C  0.98445033  0.93350814  0.60006981     0.04900
C1781       C  0.97318543  0.92368195  0.57298403    -0.07400
C1782       C  0.97777135  0.94152686  0.54995858    -0.08100
C1783       C  0.98710571  0.96965224  0.55340212    -0.02700
C1784       C  0.49599694  0.98024130  0.58010702     0.04100
N1785       N  0.49911699  0.00960930  0.58529293     0.66600
H1786       H  0.50510112  0.96901427  0.62353499     0.15500
H1787       H  0.97263090  0.93334112  0.52876868     0.15200
N1788       N  0.95672470  0.89610284  0.56842508     0.74300
O1789       O  0.47921812  0.02662311  0.56978950    -0.39100
O1790       O  0.51562618  0.01832136  0.60783719    -0.39100
O1791       O  0.92697732  0.88681046  0.58383937    -0.39800
O1792       O  0.96340096  0.88423504  0.54528618    -0.39800
C1793       C  0.49297718  0.48646004  0.02736765     0.02400
C1794       C  0.53436948  0.49613625  0.01924512     0.02400
C1795       C  0.53913741  0.01827705  0.49896335     0.02400
C1796       C  0.00148753  0.02456285  0.48280375     0.02400
C1797       C  0.95977178  0.01522526  0.49014473     0.02400
C1798       C  0.95606327  0.49527696  0.01149520     0.02400
Fe1799     Fe  0.94689425  0.11839270  0.34413942     1.65800
Fe1800     Fe  0.55584074  0.13088428  0.34126684     1.73200
Fe1801     Fe  0.99925794  0.11866111  0.28106328     1.54400
O1802       O  0.95760753  0.08486771  0.28044944    -0.81500
O1803       O  0.57672445  0.15952639  0.31252829    -0.79800
O1804       O  0.92202348  0.08635537  0.32069073    -0.84000
O1805       O  0.91623595  0.14780603  0.31951809    -0.78900
O1806       O  0.54938068  0.09093766  0.28092542    -0.80600
O1807       O  0.53133631  0.16331327  0.36477898    -0.83400
C1808       C  0.92027945  0.15562700  0.29413718     0.97400
C1809       C  0.92858805  0.07583367  0.29682195     1.04800
O1810       O  0.50095655  0.12326923  0.32167403    -1.12400
O1811       O  0.54313750  0.10389128  0.37333123    -0.74800
O1812       O  0.97361258  0.08957532  0.37107931    -0.78300
O1813       O  0.94846188  0.14582507  0.27761098    -0.79000
C1814       C  0.51102190  0.09046064  0.38231755     0.96300
O1815       O  0.96237310  0.14916553  0.37176247    -0.76900
O1816       O  0.58602214  0.09864352  0.32060619    -0.82100
C1817       C  0.56955200  0.16473716  0.28694032     0.98900
C1818       C  0.57977133  0.08532948  0.29797736     1.04800
O1819       O  0.54195259  0.15152929  0.27261235    -0.77800
C1820       C  0.99400805  0.16445208  0.37783885     1.03100
C1821       C  0.99463531  0.23779469  0.47374240     0.02400
C1822       C  0.53530873  0.24351124  0.48629604     0.02400
C1823       C  0.53927992  0.26108448  0.00996254     0.02400
C1824       C  0.00022118  0.27401741  0.01955778     0.02400
C1825       C  0.95911138  0.26892648  0.00756201     0.02400
C1826       C  0.95708492  0.25013072  0.48534927     0.02400
Fe1827     Fe  0.94446593  0.37006537  0.16034674     1.65800
Fe1828     Fe  0.55400982  0.37867580  0.16134121     1.73200
Fe1829     Fe  0.00074316  0.36999380  0.22268735     1.54400
O1830       O  0.94915414  0.39659994  0.22689119    -0.81500
O1831       O  0.58570776  0.34711697  0.18284180    -0.79800
O1832       O  0.91696080  0.40008875  0.18495090    -0.84000
O1833       O  0.92076597  0.33875380  0.18515785    -0.78900
O1834       O  0.54168298  0.40349422  0.22907934    -0.80600
O1835       O  0.53803480  0.35072066  0.13088690    -0.83400
C1836       C  0.92916935  0.32712001  0.20836430     0.97400
C1837       C  0.92124028  0.40710651  0.21044735     1.04800
O1838       O  0.50021050  0.37233050  0.18229715    -1.12400
O1839       O  0.52930690  0.41067235  0.13660683    -0.74800
O1840       O  0.95878640  0.40024506  0.13128730    -0.78300
O1841       O  0.95947992  0.33545287  0.22433413    -0.79000
C1842       C  0.49287322  0.41350378  0.12468804     0.96300
O1843       O  0.96736613  0.34039366  0.13331203    -0.76900
O1844       O  0.57628049  0.40800874  0.18855320    -0.82100
C1845       C  0.58256821  0.33564802  0.20684954     0.98900
C1846       C  0.56891063  0.41582818  0.21336797     1.04800
O1847       O  0.55323925  0.34190274  0.22431205    -0.77800
C1848       C  0.00368333  0.33818040  0.12129921     1.03100
C1849       C  0.75221730  0.01410317  0.27914155     0.02400
C1850       C  0.71090380  0.00575461  0.26877455     0.02400
C1851       C  0.70929865  0.48432822  0.24954578     0.02400
C1852       C  0.74714710  0.47230892  0.23824491     0.02400
C1853       C  0.78805589  0.47958330  0.24935583     0.02400
C1854       C  0.79020486  0.00130550  0.26892042     0.02400
Fe1855     Fe  0.80068356  0.38455869  0.09164548     1.65800
Fe1856     Fe  0.69268358  0.37357528  0.09199248     1.73200
Fe1857     Fe  0.74537528  0.38037214  0.02910207     1.54400
O1858       O  0.78500590  0.41510580  0.02629049    -0.81500
O1859       O  0.66831098  0.34467365  0.06437023    -0.79800
O1860       O  0.82285023  0.41575404  0.06602935    -0.84000
O1861       O  0.83106625  0.35451334  0.06790489    -0.78900
O1862       O  0.69227709  0.40647241  0.02811024    -0.80600
O1863       O  0.71827586  0.34114707  0.11450293    -0.83400
C1864       C  0.82729286  0.34592345  0.04282780     0.97400
C1865       C  0.81422244  0.42529601  0.04189623     1.04800
O1866       O  0.74629142  0.37958020  0.07079535    -1.12400
O1867       O  0.70866833  0.40032499  0.12443721    -0.74800
O1868       O  0.77606109  0.41474211  0.11787730    -0.78300
O1869       O  0.79824792  0.35437146  0.02598458    -0.79000
C1870       C  0.74090220  0.41499948  0.13144575     0.96300
O1871       O  0.78641099  0.35439462  0.12087439    -0.76900
O1872       O  0.66284442  0.40586873  0.07102140    -0.82100
C1873       C  0.67653471  0.33528450  0.04022412     0.98900
C1874       C  0.66490527  0.41496966  0.04595218     1.04800
O1875       O  0.70606912  0.34554638  0.02501911    -0.77800
C1876       C  0.75458477  0.33895115  0.12660572     1.03100
C1877       C  0.74721761  0.21940747  0.25983032     0.02400
C1878       C  0.78849841  0.22778570  0.25024525     0.02400
C1879       C  0.79256126  0.24820139  0.22897998     0.02400
C1880       C  0.75440683  0.25853580  0.21587734     0.02400
C1881       C  0.71282305  0.25041991  0.22540749     0.02400
C1882       C  0.70975564  0.22912999  0.24578998     0.02400
Fe1883     Fe  0.80338611  0.13554159  0.40839868     1.65800
Fe1884     Fe  0.69499464  0.12466713  0.40882213     1.73200
Fe1885     Fe  0.74934175  0.13216317  0.47132638     1.54400
O1886       O  0.80031084  0.10437944  0.47425303    -0.81500
O1887       O  0.66465591  0.15621077  0.43044743    -0.79800
O1888       O  0.83378501  0.10546422  0.43276405    -0.84000
O1889       O  0.82609700  0.16708862  0.43330323    -0.78900
O1890       O  0.70684709  0.09926592  0.47669302    -0.80600
O1891       O  0.71016072  0.15254450  0.37713050    -0.83400
C1892       C  0.81927779  0.17626265  0.45767580     0.97400
C1893       C  0.82960021  0.09602386  0.45766799     1.04800
O1894       O  0.74919881  0.13075394  0.42960916    -1.12400
O1895       O  0.72026325  0.09271592  0.38511443    -0.74800
O1896       O  0.78874717  0.10539942  0.37882672    -0.78300
O1897       O  0.79121518  0.16568747  0.47376976    -0.79000
C1898       C  0.75637934  0.09039222  0.37282133     0.96300
O1899       O  0.77856752  0.16580472  0.38207465    -0.76900
O1900       O  0.67102798  0.09528600  0.43646450    -0.82100
C1901       C  0.66879605  0.16667919  0.45477034     0.98900
C1902       C  0.67778186  0.08815463  0.46171738     1.04800
O1903       O  0.69824800  0.15973354  0.47205969    -0.77800
C1904       C  0.74248285  0.16688367  0.36955630     1.03100
C1905       C  0.74815003  0.22208978  0.31218603    -0.12100
C1906       C  0.74327786  0.20554766  0.28804714     0.04900
C1907       C  0.73450574  0.17699535  0.29167926    -0.07400
C1908       C  0.73147648  0.16582838  0.31874508    -0.08100
C1909       C  0.73962148  0.18186034  0.34254989    -0.02700
C1910       C  0.74787450  0.21036857  0.33928632     0.04100
N1911       N  0.75559372  0.22762543  0.36309834     0.66600
H1912       H  0.75401425  0.24412195  0.30984420     0.15500
H1913       H  0.72558103  0.14379714  0.32114390     0.15200
N1914       N  0.73164476  0.15842371  0.26854134     0.74300
O1915       O  0.79141417  0.22647152  0.37566664    -0.39100
O1916       O  0.72983037  0.24706492  0.36856957    -0.39100
O1917       O  0.76498162  0.15394425  0.25421530    -0.39800
O1918       O  0.70131168  0.14095507  0.26780443    -0.39800
C1919       C  0.77132316  0.30524026  0.19735138    -0.12100
C1920       C  0.75735586  0.27816980  0.19196433     0.04900
C1921       C  0.74589976  0.27042235  0.16414196    -0.07400
C1922       C  0.74518835  0.29099958  0.14324999    -0.08100
C1923       C  0.75948095  0.31791613  0.14870197    -0.02700
C1924       C  0.77468908  0.32477522  0.17575622     0.04100
N1925       N  0.79283214  0.35144810  0.18184975     0.66600
H1926       H  0.78064407  0.31100813  0.21846561     0.15500
H1927       H  0.73464651  0.28592309  0.12218593     0.15200
N1928       N  0.73716845  0.24204595  0.15621994     0.74300
O1929       O  0.78137757  0.36407496  0.20372212    -0.39100
O1930       O  0.82700750  0.35895776  0.16965002    -0.39100
O1931       O  0.74517094  0.22217600  0.17265909    -0.39800
O1932       O  0.72529072  0.23644070  0.13150294    -0.39800
C1933       C  0.72572038  0.41699408  0.18237558    -0.12100
C1934       C  0.73852903  0.43103230  0.15787882     0.04900
C1935       C  0.75294875  0.45869562  0.15994367    -0.07400
C1936       C  0.75568991  0.47116951  0.18648270    -0.08100
C1937       C  0.74504602  0.45668367  0.21115949    -0.02700
C1938       C  0.72952528  0.42928606  0.20893049     0.04100
N1939       N  0.71809084  0.41348407  0.23323872     0.66600
H1940       H  0.71467197  0.39572345  0.18101389     0.15500
H1941       H  0.76533899  0.49270302  0.18794491     0.15200
N1942       N  0.76269027  0.47480630  0.13536664     0.74300
O1943       O  0.68198676  0.40143900  0.23405278    -0.39100
O1944       O  0.74718877  0.40609373  0.25019672    -0.39100
O1945       O  0.73972648  0.47236885  0.11359988    -0.39800
O1946       O  0.78980741  0.49430333  0.13668091    -0.39800
C1947       C  0.74987483  0.02455551  0.32991022    -0.12100
C1948       C  0.75557360  0.03471061  0.30250835     0.04900
C1949       C  0.76627457  0.06311839  0.29864208    -0.07400
C1950       C  0.76826941  0.08049551  0.32235366    -0.08100
C1951       C  0.76018967  0.07037980  0.34951374    -0.02700
C1952       C  0.75234706  0.04191245  0.35341221     0.04100
N1953       N  0.74878896  0.03012030  0.38103875     0.66600
H1954       H  0.74406060  0.00260095  0.33298607     0.15500
H1955       H  0.77480634  0.10239025  0.31956108     0.15200
N1956       N  0.77539182  0.07479062  0.27137435     0.74300
O1957       O  0.72583089  0.00885458  0.38499226    -0.39100
O1958       O  0.77344340  0.03824937  0.40047641    -0.39100
O1959       O  0.76197066  0.06340756  0.24925748    -0.39800
O1960       O  0.79650057  0.09709315  0.26928689    -0.39800
C1961       C  0.67622081  0.29437604  0.23833582    -0.12100
C1962       C  0.67593711  0.27046484  0.22152646     0.04900
C1963       C  0.64232274  0.26762834  0.20155564    -0.07400
C1964       C  0.61270923  0.28924412  0.19738158    -0.08100
C1965       C  0.61344175  0.31313068  0.21388736    -0.02700
C1966       C  0.64478067  0.31528306  0.23539802     0.04100
N1967       N  0.64577007  0.33852037  0.25409239     0.66600
H1968       H  0.70107810  0.29660440  0.25420648     0.15500
H1969       H  0.58803126  0.28700898  0.18137656     0.15200
N1970       N  0.63498698  0.24255578  0.18666705     0.74300
O1971       O  0.61189324  0.34580785  0.26665461    -0.39100
O1972       O  0.68150812  0.34826353  0.26211369    -0.39100
O1973       O  0.60248963  0.22837634  0.19365210    -0.39800
O1974       O  0.64774855  0.24108240  0.16163710    -0.39800
C1975       C  0.88924625  0.28449756  0.19495357    -0.12100
C1976       C  0.90136589  0.30307889  0.21616088     0.04900
C1977       C  0.88214463  0.30026530  0.24280082    -0.07400
C1978       C  0.84934934  0.28044494  0.24705380    -0.08100
C1979       C  0.83494210  0.26315149  0.22514761    -0.02700
C1980       C  0.85691410  0.26451858  0.19917691     0.04100
N1981       N  0.84691502  0.24607549  0.17670126     0.66600
H1982       H  0.90439874  0.28596513  0.17452094     0.15500
H1983       H  0.83272895  0.28002429  0.26702899     0.15200
N1984       N  0.89220955  0.31922747  0.26480754     0.74300
O1985       O  0.83746268  0.25605783  0.15295199    -0.39100
O1986       O  0.86140318  0.22173284  0.17789326    -0.39100
O1987       O  0.87470791  0.34281019  0.26511591    -0.39800
O1988       O  0.91354229  0.31106415  0.28584952    -0.39800
C1989       C  0.87178541  0.42232916  0.24772729    -0.12100
C1990       C  0.89125369  0.42769961  0.22181313     0.04900
C1991       C  0.87958781  0.45149936  0.20646045    -0.07400
C1992       C  0.84765162  0.46900818  0.21677959    -0.08100
C1993       C  0.82596569  0.46268652  0.24177810    -0.02700
C1994       C  0.83860836  0.43921176  0.25795592     0.04100
N1995       N  0.81818783  0.43163698  0.28418966     0.66600
H1996       H  0.88098555  0.40388941  0.25931361     0.15500
H1997       H  0.83843030  0.98697579  0.20501562     0.15200
N1998       N  0.89999478  0.45814056  0.18041393     0.74300
O1999       O  0.78232692  0.44162059  0.29132002    -0.39100
O2000       O  0.83606328  0.41441341  0.30050358    -0.39100
O2001       O  0.87900124  0.45648214  0.15776343    -0.39800
O2002       O  0.94194682  0.96322178  0.18256408    -0.39800
C2003       C  0.60665063  0.44058307  0.25270393    -0.12100
C2004       C  0.59559466  0.43931792  0.22412527     0.04900
C2005       C  0.61658797  0.45764381  0.20523760    -0.07400
C2006       C  0.65150034  0.47366059  0.21437753    -0.08100
C2007       C  0.66613771  0.47228590  0.24218202    -0.02700
C2008       C  0.64189943  0.45667890  0.26187188     0.04100
N2009       N  0.65490625  0.45483330  0.29068728     0.66600
H2010       H  0.59075066  0.42696281  0.26757043     0.15500
H2011       H  0.66869211  0.48626716  0.19923829     0.15200
N2012       N  0.60378446  0.45952927  0.17639460     0.74300
O2013       O  0.62736024  0.45794227  0.30985923    -0.39100
O2014       O  0.69185396  0.44578358  0.29692941    -0.39100
O2015       O  0.56632678  0.46769713  0.17012817    -0.39800
O2016       O  0.63093203  0.45540665  0.15717471    -0.39800
C2017       C  0.60511006  0.17907880  0.48300562    -0.12100
C2018       C  0.63676664  0.18716929  0.46376188     0.04900
C2019       C  0.63653906  0.21428790  0.45288553    -0.07400
C2020       C  0.60475454  0.23302511  0.46143929    -0.08100
C2021       C  0.57232971  0.22483192  0.48025309    -0.02700
C2022       C  0.57277116  0.19754740  0.49122398     0.04100
N2023       N  0.54133053  0.18583871  0.01252432     0.66600
H2024       H  0.60571520  0.15597960  0.99264520     0.15500
H2025       H  0.60449304  0.25361319  0.45244645     0.15200
N2026       N  0.66788967  0.22281095  0.43270160     0.74300
O2027       O  0.53968479  0.19632754  0.03665895    -0.39100
O2028       O  0.51937004  0.16443496  0.00734576    -0.39100
O2029       O  0.66203949  0.21761330  0.40704362    -0.39800
O2030       O  0.69970091  0.23734973  0.44019832    -0.39800
C2031       C  0.85882967  0.22041667  0.44842385    -0.12100
C2032       C  0.84683676  0.19947236  0.46756745     0.04900
C2033       C  0.86678584  0.19880409  0.49425034    -0.07400
C2034       C  0.90035570  0.21732506  0.50022801    -0.08100
C2035       C  0.91412148  0.23706990  0.48047714    -0.02700
C2036       C  0.89159754  0.23952076  0.45490652     0.04100
N2037       N  0.90251960  0.26070155  0.43511382     0.66600
H2038       H  0.84343798  0.22146139  0.42800447     0.15500
H2039       H  0.91476104  0.21412543  0.02101494     0.15200
N2040       N  0.85169190  0.17768296  0.01658888     0.74300
O2041       O  0.91337150  0.25424362  0.41049604    -0.39100
O2042       O  0.89299272  0.28551728  0.44046250    -0.39100
O2043       O  0.88071478  0.16652499  0.03141790    -0.39800
O2044       O  0.81309088  0.17615734  0.02474978    -0.39800
C2045       C  0.63501769  0.29188274  0.04941233    -0.12100
C2046       C  0.64938059  0.31184584  0.02994744     0.04900
C2047       C  0.63263353  0.31099882  0.00235772    -0.07400
C2048       C  0.59886189  0.29261457  0.99588656    -0.08100
C2049       C  0.58252725  0.27387925  0.01589327    -0.02700
C2050       C  0.60280649  0.27253998  0.04245682     0.04100
N2051       N  0.59046854  0.25223065  0.06282571     0.66600
H2052       H  0.64832828  0.29167629  0.07047087     0.15500
H2053       H  0.58353956  0.29409284  0.97547125     0.15200
N2054       N  0.64712217  0.32997340  0.98124488     0.79900
O2055       O  0.60293802  0.22760762  0.05956062    -0.39100
O2056       O  0.57891664  0.25992976  0.08693678    -0.39100
O2057       O  0.68424656  0.32705080  0.97090431    -0.39800
O2058       O  0.62019941  0.34534607  0.96884428    -0.39800
C2059       C  0.88913147  0.27906049  0.03243589    -0.12100
C2060       C  0.92250968  0.28784993  0.01456085     0.04900
C2061       C  0.92347206  0.31586716  0.00556739    -0.07400
C2062       C  0.89165999  0.33433037  0.01472702    -0.08100
C2063       C  0.85869689  0.32549069  0.03262338    -0.02700
C2064       C  0.85729213  0.29764216  0.04144559     0.04100
N2065       N  0.82372963  0.28807641  0.05961186     0.66600
H2066       H  0.88813981  0.25790167  0.03990326     0.15500
H2067       H  0.89283797  0.35580693  0.00800343     0.15200
N2068       N  0.95687847  0.32595819  0.98742230     0.74300
O2069       O  0.78524900  0.28724850  0.05096167    -0.39100
O2070       O  0.83218798  0.28171562  0.08474223    -0.39100
O2071       O  0.96460490  0.31380817  0.96462175    -0.39800
O2072       O  0.97496303  0.34886527  0.99239280    -0.39800
C2073       C  0.52573693  0.31436513  0.04852919    -0.12100
C2074       C  0.00249006  0.28988108  0.04616391     0.04900
C2075       C  0.98248350  0.27981011  0.07093399    -0.07400
C2076       C  0.98330353  0.29613227  0.09513705    -0.08100
C2077       C  0.00686453  0.32086260  0.09603041    -0.02700
C2078       C  0.53088493  0.32904141  0.07352522     0.04100
N2079       N  0.55894954  0.35277691  0.07370926     0.66600
H2080       H  0.54055058  0.32222221  0.02955065     0.15500
H2081       H  0.96676462  0.28899352  0.11383630     0.15200
N2082       N  0.96245960  0.25288570  0.07218647     0.74300
O2083       O  0.59078242  0.35316050  0.09024244    -0.39100
O2084       O  0.55883238  0.36934258  0.05314323    -0.39100
O2085       O  0.97887106  0.23262693  0.05944368    -0.39800
O2086       O  0.93163615  0.24844943  0.08888850    -0.39800
C2087       C  0.64656251  0.22457696  0.27719953    -0.12100
C2088       C  0.66759574  0.21646811  0.25262674     0.04900
C2089       C  0.65127394  0.19388912  0.23694160    -0.07400
C2090       C  0.61571321  0.17903420  0.24711084    -0.08100
C2091       C  0.59722725  0.18558546  0.27307890    -0.02700
C2092       C  0.61178892  0.20924006  0.28762529     0.04100
N2093       N  0.59251636  0.21728590  0.31355120     0.66600
H2094       H  0.65874385  0.24199931  0.28912153     0.15500
H2095       H  0.60518367  0.16070771  0.23593884     0.15200
N2096       N  0.67220614  0.18437392  0.21192583     0.74300
O2097       O  0.61384202  0.21568603  0.33609374    -0.39100
O2098       O  0.55608637  0.22888963  0.31347035    -0.39100
O2099       O  0.70647733  0.17058102  0.21400551    -0.39800
O2100       O  0.65104419  0.18276594  0.18935697    -0.39800
C2101       C  0.87515028  0.17249809  0.25512969    -0.12100
C2102       C  0.88991344  0.17621489  0.28259390     0.04900
C2103       C  0.87488479  0.19890998  0.29821831    -0.07400
C2104       C  0.84416359  0.21679159  0.28646243    -0.08100
C2105       C  0.82680742  0.21177934  0.25969236    -0.02700
C2106       C  0.84330124  0.18955565  0.24345835     0.04100
N2107       N  0.82710856  0.18282051  0.21588673     0.66600
H2108       H  0.88683511  0.15501486  0.24318769     0.15500
H2109       H  0.83273512  0.23414206  0.29867499     0.15200
N2110       N  0.89096852  0.20426080  0.32580230     0.74300
O2111       O  0.84943744  0.16825839  0.19946080    -0.39100
O2112       O  0.78917015  0.18884955  0.20868167    -0.39100
O2113       O  0.92240989  0.22055323  0.32910221    -0.39800
O2114       O  0.87061296  0.19546418  0.34694192    -0.39800
C2115       C  0.88507650  0.03370010  0.30790980    -0.12100
C2116       C  0.89971479  0.05286312  0.28781578     0.04900
C2117       C  0.88364589  0.05098090  0.26013199    -0.07400
C2118       C  0.85062859  0.03199974  0.25386882    -0.08100
C2119       C  0.83331180  0.01446428  0.27463492    -0.02700
C2120       C  0.85312105  0.01408634  0.30139891     0.04100
N2121       N  0.84940125  0.48985638  0.31993594     0.66600
H2122       H  0.89867293  0.03393319  0.32888737     0.15500
H2123       H  0.83614500  0.03245631  0.23314856     0.15200
N2124       N  0.89767178  0.06980511  0.23876169     0.74300
O2125       O  0.83591931  0.49447607  0.34439437    -0.39100
O2126       O  0.87044293  0.46794790  0.31571674    -0.39100
O2127       O  0.91891364  0.06095659  0.21812099    -0.39800
O2128       O  0.88618946  0.09486610  0.23941147    -0.39800
C2129       C  0.62072736  0.05897961  0.26238852    -0.12100
C2130       C  0.60975626  0.06271460  0.29062542     0.04900
C2131       C  0.62755574  0.04478402  0.31101652    -0.07400
C2132       C  0.65734463  0.02457365  0.30298323    -0.08100
C2133       C  0.67226554  0.02303945  0.27523604    -0.02700
C2134       C  0.65208933  0.03970282  0.25440794     0.04100
N2135       N  0.66276047  0.03766565  0.22516269     0.66600
H2136       H  0.60643088  0.07220572  0.24645905     0.15500
H2137       H  0.66992082  0.01057407  0.31876038     0.15200
N2138       N  0.61563380  0.04671862  0.33990240     0.74300
O2139       O  0.63318079  0.03866233  0.20692150    -0.39100
O2140       O  0.70151951  0.03778162  0.21722690    -0.39100
O2141       O  0.59090195  0.02871786  0.35045022    -0.39800
O2142       O  0.63597654  0.06297993  0.35584221    -0.39800
C2143       C  0.51344576  0.21044114  0.39996982    -0.12100
C2144       C  0.98897999  0.18469090  0.40093685     0.04900
C2145       C  0.96447711  0.17847935  0.42531244    -0.07400
C2146       C  0.96934842  0.19509650  0.44909442    -0.08100
C2147       C  0.99174258  0.22028947  0.44796338    -0.02700
C2148       C  0.51284482  0.22874443  0.42283821     0.04100
N2149       N  0.53227622  0.25573923  0.41969027     0.66600
H2150       H  0.53052024  0.21621060  0.38100770     0.15500
H2151       H  0.95418406  0.18867328  0.46842878     0.15200
N2152       N  0.93385596  0.15605588  0.42628603     0.74300
O2153       O  0.56143872  0.25969309  0.40165581    -0.39100
O2154       O  0.51733328  0.27637116  0.43257280    -0.39100
O2155       O  0.92920886  0.14225897  0.44865149    -0.39800
O2156       O  0.90396955  0.15527146  0.40828483    -0.39800
C2157       C  0.87420717  0.05456794  0.44736654    -0.12100
C2158       C  0.85981773  0.07385868  0.46719074     0.04900
C2159       C  0.87551248  0.07170288  0.49506320    -0.07400
C2160       C  0.90665510  0.05160674  0.50177890    -0.08100
C2161       C  0.92151955  0.03254612  0.48186143    -0.02700
C2162       C  0.90375416  0.03364058  0.45446435     0.04100
N2163       N  0.91272650  0.01286924  0.43405686     0.66600
H2164       H  0.86133763  0.05524216  0.42619854     0.15500
H2165       H  0.94073927  0.06149175  0.01421637     0.15200
N2166       N  0.88778436  0.10315414  0.00499522     0.74300
O2167       O  0.89822803  0.98880072  0.43815784    -0.39100
O2168       O  0.92180410  0.02012608  0.40927659    -0.39100
O2169       O  0.82387164  0.08866017  0.52584176    -0.39800
O2170       O  0.92202277  0.11704426  0.00784496    -0.39800
C2171       C  0.62462951  0.07470148  0.49846911    -0.12100
C2172       C  0.64839565  0.06738329  0.47455098     0.04900
C2173       C  0.63979213  0.04178061  0.46154272    -0.07400
C2174       C  0.60663177  0.02465652  0.47155930    -0.08100
C2175       C  0.58064787  0.03298735  0.49395971    -0.02700
C2176       C  0.59041669  0.05803026  0.50803011     0.04100
N2177       N  0.56498453  0.06600760  0.03143769     0.66600
H2178       H  0.63069704  0.09438436  0.50861528     0.15500
H2179       H  0.59939943  0.00553019  0.46070117     0.15200
N2180       N  0.66404043  0.03306074  0.43779927     0.74300
O2181       O  0.58286138  0.08075930  0.04996332    -0.39100
O2182       O  0.52473716  0.06235836  0.03263140    -0.39100
O2183       O  0.69230438  0.01452863  0.44092942    -0.39800
O2184       O  0.65068549  0.03895096  0.41346708    -0.39800
C2185       C  0.01655991  0.04378257  0.40643746    -0.12100
C2186       C  0.51657958  0.07412784  0.40791076     0.04900
C2187       C  0.51986121  0.08704266  0.43443704    -0.07400
C2188       C  0.51196301  0.07107722  0.45849683    -0.08100
C2189       C  0.50808638  0.04226913  0.45681622    -0.02700
C2190       C  0.01444494  0.02766043  0.43078337     0.04100
N2191       N  0.00000436  0.49947535  0.42978561     0.66600
H2192       H  0.01812693  0.03380998  0.38614097     0.15500
H2193       H  0.51030698  0.08081319  0.47821124     0.15200
N2194       N  0.53228126  0.11570281  0.43758542     0.74300
O2195       O  0.98254632  0.48881740  0.40842358    -0.39100
O2196       O  0.02310518  0.48428095  0.44530878    -0.39100
O2197       O  0.52407544  0.12820433  0.46013515    -0.39800
O2198       O  0.56006632  0.12620574  0.42141947    -0.39800
C2199       C  0.89057017  0.48645063  0.04018667    -0.12100
C2200       C  0.91435676  0.48056059  0.01600904     0.04900
C2201       C  0.90095425  0.45834742  0.99848186    -0.07400
C2202       C  0.86404797  0.44297535  0.00568997    -0.08100
C2203       C  0.84250748  0.44755163  0.03098600    -0.02700
C2204       C  0.85555106  0.46983081  0.04803287     0.04100
N2205       N  0.83418749  0.47531292  0.07384954     0.66600
H2206       H  0.89214218  0.00657399  0.04770317     0.15500
H2207       H  0.85516620  0.42517300  0.99314018     0.15200
N2208       N  0.92672106  0.44887627  0.97536426     0.74300
O2209       O  0.84046399  0.96934810  0.09257858    -0.39100
O2210       O  0.80019746  0.48961297  0.07363120    -0.39100
O2211       O  0.96719505  0.44779055  0.97766966    -0.39800
O2212       O  0.95037511  0.45977397  0.46248983    -0.39800
C2213       C  0.57989107  0.45803597  0.50752704    -0.12100
C2214       C  0.57192586  0.47770183  0.02506997     0.04900
C2215       C  0.60288367  0.48214592  0.04640037    -0.07400
C2216       C  0.63287172  0.46133500  0.05281212    -0.08100
C2217       C  0.63424719  0.43671945  0.03741109    -0.02700
C2218       C  0.60518065  0.43295140  0.01498092     0.04100
N2219       N  0.61413207  0.41481388  0.49368320     0.66600
H2220       H  0.56075187  0.45687532  0.48849381     0.15500
H2221       H  0.65587971  0.46465698  0.06964391     0.15200
N2222       N  0.60632124  0.50784283  0.06083248     0.74300
O2223       O  0.58319196  0.39796622  0.49131445    -0.39100
O2224       O  0.64318959  0.41529167  0.47520733    -0.39100
O2225       O  0.59711700  0.50843319  0.08658216    -0.39800
O2226       O  0.60737408  0.02508541  0.06306977    -0.39800
C2227       C  0.99720409  0.46126838  0.10301786    -0.12100
C2228       C  0.48851847  0.43268242  0.10040253     0.04900
C2229       C  0.47506509  0.42301762  0.07374530    -0.07400
C2230       C  0.47793738  0.44065122  0.05034480    -0.08100
C2231       C  0.48908335  0.46866429  0.05316016    -0.02700
C2232       C  0.99539446  0.47986765  0.08014139     0.04100
N2233       N  0.99850416  0.50927592  0.08531018     0.66600
H2234       H  0.00486988  0.46880078  0.12381952     0.15500
H2235       H  0.47047184  0.43246947  0.02984277     0.15200
N2236       N  0.45836989  0.39550412  0.06994046     0.74300
O2237       O  0.98236708  0.52646289  0.06824744    -0.39100
O2238       O  0.01077369  0.51798277  0.10898299    -0.39100
O2239       O  0.42462711  0.38828789  0.08280660    -0.39800
O2240       O  0.46999590  0.38153033  0.04897089    -0.39800
C2241       C  0.49300429  0.48884852  0.52826148     0.02400
C2242       C  0.53483765  0.49806565  0.52057480     0.02400
C2243       C  0.53707158  0.01611496  0.99922960     0.02400
C2244       C  0.00156867  0.02318189  0.98187951     0.02400
C2245       C  0.95978752  0.01426999  0.98971198     0.02400
C2246       C  0.95669629  0.49667887  0.51402906     0.02400
Fe2247     Fe  0.94625782  0.11953753  0.84268133     1.65800
Fe2248     Fe  0.55517457  0.12945045  0.84324294     1.73200
Fe2249     Fe  0.00084467  0.11951482  0.78047124     1.54400
O2250       O  0.95992389  0.08536298  0.77948517    -0.81500
O2251       O  0.57583032  0.15909150  0.81543575    -0.79800
O2252       O  0.92163567  0.08800347  0.81856747    -0.84000
O2253       O  0.91728975  0.14945109  0.81799849    -0.78900
O2254       O  0.55034195  0.09115915  0.78175494    -0.80600
O2255       O  0.53039684  0.16104464  0.86774709    -0.83400
C2256       C  0.92151503  0.15669989  0.79247365     0.97400
C2257       C  0.92984016  0.07678350  0.79527015     1.04800
O2258       O  0.50044689  0.12224866  0.82331222    -1.12400
O2259       O  0.54200207  0.10151229  0.87426347    -0.74800
O2260       O  0.97124263  0.09003544  0.86941591    -0.78300
O2261       O  0.94961548  0.14639660  0.77617408    -0.79000
C2262       C  0.50961278  0.08820412  0.88299805     0.96300
O2263       O  0.96141971  0.14975155  0.87101083    -0.76900
O2264       O  0.58629787  0.09798215  0.82180637    -0.82100
C2265       C  0.56810553  0.16507987  0.79007931     0.98900
C2266       C  0.58078178  0.08540281  0.79868224     1.04800
O2267       O  0.54074799  0.15193842  0.77545201    -0.77800
C2268       C  0.99275829  0.16522157  0.87727064     1.03100
C2269       C  0.99211228  0.23684764  0.97441718     0.02400
C2270       C  0.53485713  0.24108009  0.98859860     0.02400
C2271       C  0.53909059  0.26374034  0.50744244     0.02400
C2272       C  0.00253972  0.27523348  0.51869082     0.02400
C2273       C  0.96152277  0.27018246  0.50659815     0.02400
C2274       C  0.95452671  0.24883737  0.98635683     0.02400
Fe2275     Fe  0.94483968  0.36951402  0.66024217     1.65800
Fe2276     Fe  0.55485512  0.37931745  0.65949299     1.73200
Fe2277     Fe  0.00069885  0.36864089  0.72262895     1.54400
O2278       O  0.95374206  0.39854537  0.72671670    -0.81500
O2279       O  0.58699726  0.34833069  0.68172828    -0.79800
O2280       O  0.91408990  0.39568982  0.68761839    -0.84000
O2281       O  0.92466300  0.33481922  0.68172132    -0.78900
O2282       O  0.54492329  0.40409065  0.72704676    -0.80600
O2283       O  0.53933834  0.35059913  0.62981258    -0.83400
C2284       C  0.92808868  0.32584848  0.70667056     0.97400
C2285       C  0.92206397  0.40595031  0.71152931     1.04800
O2286       O  0.50093307  0.37358888  0.68070513    -1.12400
O2287       O  0.52985745  0.41038384  0.63378857    -0.74800
O2288       O  0.95682695  0.40382016  0.63561016    -0.78300
O2289       O  0.95382376  0.33684922  0.72439524    -0.79000
C2290       C  0.49243593  0.41527210  0.62406954     0.96300
O2291       O  0.96981786  0.34397623  0.62960472    -0.76900
O2292       O  0.57695607  0.40952188  0.68576427    -0.82100
C2293       C  0.58268490  0.33626620  0.70535972     0.98900
C2294       C  0.57105753  0.41684388  0.71088966     1.04800
O2295       O  0.55268460  0.34220238  0.72241853    -0.77800
C2296       C  0.00724086  0.33650497  0.62194277     1.03100
C2297       C  0.75442969  0.01503626  0.77756906     0.02400
C2298       C  0.71307411  0.00729283  0.76689600     0.02400
C2299       C  0.71131890  0.48552875  0.74761943     0.02400
C2300       C  0.74944378  0.47353932  0.73673464     0.02400
C2301       C  0.79007678  0.48051537  0.74852150     0.02400
C2302       C  0.79239689  0.00203616  0.76740040     0.02400
Fe2303     Fe  0.80159894  0.38340545  0.59137022     1.65800
Fe2304     Fe  0.69346087  0.37383741  0.59143223     1.73200
Fe2305     Fe  0.74626650  0.38117664  0.52868812     1.54400
O2306       O  0.78574938  0.41597416  0.52684851    -0.81500
O2307       O  0.66910266  0.34538298  0.56343817    -0.79800
O2308       O  0.82580031  0.41371750  0.56567912    -0.84000
O2309       O  0.83053328  0.35281434  0.56768154    -0.78900
O2310       O  0.69247933  0.40716093  0.52769047    -0.80600
O2311       O  0.71801019  0.34099490  0.61376081    -0.83400
C2312       C  0.82787509  0.34579366  0.54203900     0.97400
C2313       C  0.81665653  0.42439173  0.54216181     1.04800
O2314       O  0.74714568  0.37957203  0.57035578    -1.12400
O2315       O  0.71011953  0.40043999  0.62390555    -0.74800
O2316       O  0.77789423  0.41420764  0.61722806    -0.78300
O2317       O  0.79981170  0.35552859  0.52514501    -0.79000
C2318       C  0.74266549  0.41495644  0.63072174     0.96300
O2319       O  0.78604764  0.35378933  0.62086845    -0.76900
O2320       O  0.66403833  0.40638214  0.57080475    -0.82100
C2321       C  0.67756394  0.33606104  0.53929494     0.98900
C2322       C  0.66541422  0.41565435  0.54579485     1.04800
O2323       O  0.70730145  0.34626496  0.52418520    -0.77800
C2324       C  0.75388919  0.33856886  0.62629623     1.03100
C2325       C  0.74538793  0.21851007  0.75923096     0.02400
C2326       C  0.78650631  0.22653255  0.74894811     0.02400
C2327       C  0.79020501  0.24719052  0.72793095     0.02400
C2328       C  0.75184039  0.25767927  0.71525889     0.02400
C2329       C  0.71033238  0.24983252  0.72530154     0.02400
C2330       C  0.70741267  0.22890884  0.74617121     0.02400
Fe2331     Fe  0.80175880  0.13446081  0.90812108     1.65800
Fe2332     Fe  0.69398237  0.12256083  0.90843422     1.73200
Fe2333     Fe  0.74804753  0.12953842  0.97093294     1.54400
O2334       O  0.80142145  0.10351018  0.97367699    -0.81500
O2335       O  0.66458051  0.15529898  0.92897666    -0.79800
O2336       O  0.83280814  0.10381122  0.93138563    -0.84000
O2337       O  0.82490646  0.16523990  0.93410600    -0.78900
O2338       O  0.70830635  0.09499024  0.97564223    -0.80600
O2339       O  0.71001090  0.14879342  0.87532315    -0.83400
C2340       C  0.81672258  0.17468039  0.95824951     0.97400
C2341       C  0.83007763  0.09510066  0.95661613     1.04800
O2342       O  0.74795257  0.12881426  0.92932554    -1.12400
O2343       O  0.71976549  0.08968790  0.88642107    -0.74800
O2344       O  0.78641838  0.10506255  0.87799684    -0.78300
O2345       O  0.78736174  0.16441305  0.97358457    -0.79000
C2346       C  0.75514161  0.08875614  0.87302490     0.96300
O2347       O  0.77597963  0.16532724  0.88270910    -0.76900
O2348       O  0.66839131  0.09440298  0.93690244    -0.82100
C2349       C  0.66693210  0.16407739  0.95412876     0.98900
C2350       C  0.67713748  0.08545094  0.96129705     1.04800
O2351       O  0.69464828  0.15545367  0.97191734    -0.77800
C2352       C  0.74134625  0.16435171  0.86849130     1.03100
C2353       C  0.74889343  0.21985593  0.81152779    -0.12100
C2354       C  0.74246336  0.20398787  0.78712754     0.04900
C2355       C  0.73214005  0.17561135  0.79015145    -0.07400
C2356       C  0.72965302  0.16378046  0.81709041    -0.08100
C2357       C  0.73889563  0.17927426  0.84126175    -0.02700
C2358       C  0.74819611  0.20767599  0.83836181     0.04100
N2359       N  0.75570040  0.22455181  0.86244246     0.66600
H2360       H  0.75539312  0.24185317  0.80962575     0.15500
H2361       H  0.72266887  0.14184291  0.81905559     0.15200
N2362       N  0.72586468  0.15816666  0.76632449     0.74300
O2363       O  0.79345045  0.22704979  0.87203828    -0.39100
O2364       O  0.72659210  0.24081595  0.87066711    -0.39100
O2365       O  0.75786770  0.15207716  0.75132697    -0.39800
O2366       O  0.69240102  0.14332092  0.76485604    -0.39800
C2367       C  0.76911210  0.30449032  0.69705168    -0.12100
C2368       C  0.75468090  0.27754870  0.69150348     0.04900
C2369       C  0.74317054  0.27007070  0.66363167    -0.07400
C2370       C  0.74283071  0.29075612  0.64286182    -0.08100
C2371       C  0.75788045  0.31747805  0.64842347    -0.02700
C2372       C  0.77319736  0.32405065  0.67553169     0.04100
N2373       N  0.79252914  0.35035864  0.68170857     0.66600
H2374       H  0.77849819  0.31007394  0.71820208     0.15500
H2375       H  0.73230520  0.28584497  0.62175336     0.15200
N2376       N  0.73442762  0.24178522  0.65550063     0.74300
O2377       O  0.78179101  0.36305389  0.70369662    -0.39100
O2378       O  0.82709786  0.35719922  0.66957759    -0.39100
O2379       O  0.74424685  0.22178451  0.67133643    -0.39800
O2380       O  0.72146708  0.23643395  0.63095290    -0.39800
C2381       C  0.72902230  0.41740148  0.68170239    -0.12100
C2382       C  0.74056126  0.43135697  0.65690173     0.04900
C2383       C  0.75371144  0.45935101  0.65840814    -0.07400
C2384       C  0.75694894  0.47208657  0.68484138    -0.08100
C2385       C  0.74767860  0.45765512  0.70980162    -0.02700
C2386       C  0.73303369  0.43004786  0.70805124     0.04100
N2387       N  0.72229145  0.41449616  0.73265937     0.66600
H2388       H  0.71862894  0.39597634  0.68069916     0.15500
H2389       H  0.76577497  0.49378090  0.68603932     0.15200
N2390       N  0.76166690  0.47548992  0.63350210     0.74300
O2391       O  0.68675168  0.40179938  0.73376610    -0.39100
O2392       O  0.75142290  0.40849609  0.75014447    -0.39100
O2393       O  0.74016641  0.47110207  0.61142018    -0.39800
O2394       O  0.78582787  0.49654505  0.63458790    -0.39800
C2395       C  0.74789164  0.02419847  0.82826685    -0.12100
C2396       C  0.75735610  0.03484256  0.80151917     0.04900
C2397       C  0.77036075  0.06296345  0.79885861    -0.07400
C2398       C  0.77104921  0.07963309  0.82305013    -0.08100
C2399       C  0.75935151  0.06912747  0.84949035    -0.02700
C2400       C  0.74897489  0.04085361  0.85229360     0.04100
N2401       N  0.74157021  0.02844878  0.87934320     0.66600
H2402       H  0.74044048  0.00234625  0.83044565     0.15500
H2403       H  0.77933011  0.10138020  0.82114397     0.15200
N2404       N  0.78293569  0.07506983  0.77236384     0.74300
O2405       O  0.71800353  0.00720105  0.88145149    -0.39100
O2406       O  0.76340229  0.03604451  0.90036223    -0.39100
O2407       O  0.77286597  0.06387992  0.74942449    -0.39800
O2408       O  0.80431224  0.09735472  0.77176066    -0.39800
C2409       C  0.67526955  0.29443833  0.73726364    -0.12100
C2410       C  0.67370518  0.27000904  0.72129167     0.04900
C2411       C  0.63959023  0.26701079  0.70168542    -0.07400
C2412       C  0.61075187  0.28900738  0.69701121    -0.08100
C2413       C  0.61298965  0.31349944  0.71259144    -0.02700
C2414       C  0.64482676  0.31583698  0.73377091     0.04100
N2415       N  0.64737315  0.33974036  0.75156755     0.66600
H2416       H  0.70056171  0.29675930  0.75282710     0.15500
H2417       H  0.58564756  0.28668147  0.68130722     0.15200
N2418       N  0.63132991  0.24158523  0.68753236     0.74300
O2419       O  0.61377933  0.34914346  0.76294799    -0.39100
O2420       O  0.68366016  0.34830965  0.75992337    -0.39100
O2421       O  0.59746407  0.22852497  0.69397132    -0.39800
O2422       O  0.64636741  0.23837533  0.66324289    -0.39800
C2423       C  0.88732295  0.28308748  0.69370311    -0.12100
C2424       C  0.89939171  0.30206511  0.71463132     0.04900
C2425       C  0.87983593  0.29954737  0.74126861    -0.07400
C2426       C  0.84685215  0.27984651  0.74564826    -0.08100
C2427       C  0.83255499  0.26225122  0.72397325    -0.02700
C2428       C  0.85479527  0.26323340  0.69810806     0.04100
N2429       N  0.84506381  0.24438768  0.67594895     0.66600
H2430       H  0.90271966  0.28404891  0.67332666     0.15500
H2431       H  0.83012482  0.27966889  0.76558786     0.15200
N2432       N  0.89009748  0.31845426  0.76328537     0.74300
O2433       O  0.83351329  0.25397817  0.65243420    -0.39100
O2434       O  0.86191845  0.22066383  0.67677759    -0.39100
O2435       O  0.87226824  0.34192839  0.76385575    -0.39800
O2436       O  0.91141065  0.31016200  0.78428733    -0.39800
C2437       C  0.87425906  0.42320070  0.74885514    -0.12100
C2438       C  0.89235823  0.42701543  0.72229187     0.04900
C2439       C  0.87958739  0.44973873  0.70569147    -0.07400
C2440       C  0.84867288  0.46811789  0.71577634    -0.08100
C2441       C  0.82804362  0.46328323  0.74148618    -0.02700
C2442       C  0.84119398  0.44052074  0.75860599     0.04100
N2443       N  0.82088619  0.43375350  0.78508874     0.66600
H2444       H  0.88415977  0.40543717  0.76126043     0.15500
H2445       H  0.83691849  0.98556016  0.70120078     0.15200
N2446       N  0.89735060  0.45416889  0.67838897     0.74300
O2447       O  0.78540171  0.44431127  0.79216295    -0.39100
O2448       O  0.83817176  0.41640270  0.80153655    -0.39100
O2449       O  0.87569419  0.44776495  0.65690820    -0.39800
O2450       O  0.92967965  0.96727799  0.67361851    -0.39800
C2451       C  0.60918940  0.44125718  0.75017589    -0.12100
C2452       C  0.59825208  0.44013199  0.72158180     0.04900
C2453       C  0.61939562  0.45852571  0.70281390    -0.07400
C2454       C  0.65399948  0.47470530  0.71218976    -0.08100
C2455       C  0.66841891  0.47325187  0.74003884    -0.02700
C2456       C  0.64431559  0.45731279  0.75955099     0.04100
N2457       N  0.65722977  0.45511559  0.78838771     0.66600
H2458       H  0.59322870  0.42754844  0.76493001     0.15500
H2459       H  0.67118838  0.48747547  0.69719148     0.15200
N2460       N  0.60711997  0.46035695  0.67387712     0.74300
O2461       O  0.62920670  0.45621474  0.80750903    -0.39100
O2462       O  0.69505965  0.44767502  0.79456569    -0.39100
O2463       O  0.57061532  0.46991776  0.66725463    -0.39800
O2464       O  0.63428623  0.45525542  0.65491700    -0.39800
C2465       C  0.60497757  0.17679205  0.98399775    -0.12100
C2466       C  0.63505538  0.18461054  0.96358153     0.04900
C2467       C  0.63353646  0.21154996  0.95221802    -0.07400
C2468       C  0.60243985  0.23040339  0.96165636    -0.08100
C2469       C  0.57165792  0.22245225  0.98170434    -0.02700
C2470       C  0.57303181  0.19526335  0.99285940     0.04100
N2471       N  0.54006441  0.18816014  0.51024648     0.66600
H2472       H  0.60515417  0.15814002  0.49134706     0.15500
H2473       H  0.60153071  0.25096727  0.95259628     0.15200
N2474       N  0.66305909  0.21985651  0.93082922     0.74300
O2475       O  0.53421741  0.20055476  0.53312726    -0.39100
O2476       O  0.52058653  0.16563009  0.50584794    -0.39100
O2477       O  0.65156524  0.21931637  0.90541902    -0.39800
O2478       O  0.69963736  0.22932939  0.93739630    -0.39800
C2479       C  0.85631015  0.21887517  0.94940964    -0.12100
C2480       C  0.84394492  0.19802496  0.96859211     0.04900
C2481       C  0.86342334  0.19769580  0.99555752    -0.07400
C2482       C  0.89744853  0.21608890  0.00132385    -0.08100
C2483       C  0.91149459  0.23567277  0.98149832    -0.02700
C2484       C  0.88892323  0.23809921  0.95595768     0.04100
N2485       N  0.89944411  0.25954493  0.93635151     0.66600
H2486       H  0.84110411  0.21985397  0.92892494     0.15500
H2487       H  0.91795678  0.21496241  0.51976710     0.15200
N2488       N  0.85690926  0.17758741  0.51431499     0.74300
O2489       O  0.90836035  0.25353443  0.91128766    -0.39100
O2490       O  0.89206984  0.28443675  0.94269720    -0.39100
O2491       O  0.88673975  0.16237080  0.52370926    -0.39800
O2492       O  0.82099207  0.17780320  0.52668728    -0.39800
C2493       C  0.63434546  0.29333470  0.54820648    -0.12100
C2494       C  0.65016754  0.31291293  0.52883332     0.04900
C2495       C  0.63464296  0.31208065  0.50100305    -0.07400
C2496       C  0.60015366  0.29447145  0.49413980    -0.08100
C2497       C  0.58233215  0.27614813  0.51401754    -0.02700
C2498       C  0.60168341  0.27448869  0.54084554     0.04100
N2499       N  0.58781603  0.25446091  0.56108474     0.66600
H2500       H  0.64686124  0.29305034  0.56946786     0.15500
H2501       H  0.58558639  0.29624262  0.47351703     0.15200
N2502       N  0.65136341  0.33030518  0.47997238     0.79900
O2503       O  0.59899241  0.22956421  0.55794072    -0.39100
O2504       O  0.57595942  0.26241229  0.58504688    -0.39100
O2505       O  0.68487685  0.32348898  0.46674732    -0.39800
O2506       O  0.62836540  0.34989122  0.47079664    -0.39800
C2507       C  0.89143186  0.27965518  0.53157888    -0.12100
C2508       C  0.92465674  0.28877824  0.51377646     0.04900
C2509       C  0.92469774  0.31665252  0.50448227    -0.07400
C2510       C  0.89229008  0.33481261  0.51343806    -0.08100
C2511       C  0.85944574  0.32565048  0.53135653    -0.02700
C2512       C  0.85887150  0.29782647  0.54031663     0.04100
N2513       N  0.82523228  0.28782432  0.55820119     0.66600
H2514       H  0.89093334  0.25849999  0.53905626     0.15500
H2515       H  0.89301869  0.35627142  0.50662955     0.15200
N2516       N  0.95775584  0.32682583  0.48615638     0.74300
O2517       O  0.78663208  0.28784584  0.54973052    -0.39100
O2518       O  0.83390712  0.27953562  0.58272377    -0.39100
O2519       O  0.96236291  0.31647587  0.46209758    -0.39800
O2520       O  0.97920247  0.34807103  0.49270746    -0.39800
C2521       C  0.52586233  0.31681386  0.54590102    -0.12100
C2522       C  0.00494854  0.29039213  0.54575384     0.04900
C2523       C  0.98497364  0.27973038  0.57030753    -0.07400
C2524       C  0.98637398  0.29528992  0.59500240    -0.08100
C2525       C  0.01092274  0.31952446  0.59662743    -0.02700
C2526       C  0.53159420  0.33106190  0.57113652     0.04100
N2527       N  0.56124018  0.35402680  0.57178917     0.66600
H2528       H  0.54146270  0.32447859  0.52711422     0.15500
H2529       H  0.96942121  0.28798931  0.61348339     0.15200
N2530       N  0.96428927  0.25300622  0.57083848     0.74300
O2531       O  0.59171929  0.35393649  0.58936885    -0.39100
O2532       O  0.56405712  0.37003265  0.55084565    -0.39100
O2533       O  0.98024659  0.23294803  0.55757757    -0.39800
O2534       O  0.93354317  0.24837869  0.58754643    -0.39800
C2535       C  0.64751250  0.22387724  0.78034180    -0.12100
C2536       C  0.66499021  0.21690525  0.75420380     0.04900
C2537       C  0.64507895  0.19570795  0.73809257    -0.07400
C2538       C  0.60936636  0.18160312  0.74912473    -0.08100
C2539       C  0.59511042  0.18652130  0.77648233    -0.02700
C2540       C  0.61335376  0.20860605  0.79179504     0.04100
N2541       N  0.59871455  0.21498781  0.81944723     0.66600
H2542       H  0.66229647  0.24015513  0.79267304     0.15500
H2543       H  0.59585385  0.16442436  0.73744973     0.15200
N2544       N  0.66235862  0.18646293  0.71173149     0.74300
O2545       O  0.62379856  0.21216324  0.84016025    -0.39100
O2546       O  0.56188888  0.22548902  0.82291920    -0.39100
O2547       O  0.70245623  0.18426003  0.70848122    -0.39800
O2548       O  0.63773571  0.17592809  0.69350182    -0.39800
C2549       C  0.87504052  0.17224516  0.75360243    -0.12100
C2550       C  0.89103492  0.17698069  0.78058095     0.04900
C2551       C  0.87607479  0.19991173  0.79585070    -0.07400
C2552       C  0.84371595  0.21678068  0.78446649    -0.08100
C2553       C  0.82524855  0.21080600  0.75822694    -0.02700
C2554       C  0.84210864  0.18857158  0.74212528     0.04100
N2555       N  0.82586746  0.18138798  0.71470917     0.66600
H2556       H  0.88676583  0.15459498  0.74192283     0.15500
H2557       H  0.83236197  0.23432493  0.79642009     0.15200
N2558       N  0.89426526  0.20669305  0.82254086     0.74300
O2559       O  0.84862239  0.16718976  0.69820119    -0.39100
O2560       O  0.78780643  0.18703892  0.70754167    -0.39100
O2561       O  0.92885594  0.22043619  0.82378467    -0.39800
O2562       O  0.87378974  0.20129578  0.84475012    -0.39800
C2563       C  0.88638298  0.03484886  0.80682144    -0.12100
C2564       C  0.90184588  0.05336593  0.78638482     0.04900
C2565       C  0.88731839  0.05042297  0.75847346    -0.07400
C2566       C  0.85458443  0.03123068  0.75223379    -0.08100
C2567       C  0.83580111  0.01472974  0.77335600    -0.02700
C2568       C  0.85459101  0.01511996  0.80043128     0.04100
N2569       N  0.84446436  0.49395135  0.82284260     0.66600
H2570       H  0.89906994  0.03575383  0.82801830     0.15500
H2571       H  0.84118227  0.03094496  0.73120881     0.15200
N2572       N  0.90231463  0.06856853  0.73680174     0.74300
O2573       O  0.83181254  0.50151548  0.84674402    -0.39100
O2574       O  0.86212010  0.47055591  0.82075811    -0.39100
O2575       O  0.92691543  0.05948366  0.71792597    -0.39800
O2576       O  0.88906411  0.09325386  0.73557961    -0.39800
C2577       C  0.62651230  0.06304544  0.76278302    -0.12100
C2578       C  0.61176002  0.06361559  0.79053061     0.04900
C2579       C  0.62644173  0.04322105  0.80957683    -0.07400
C2580       C  0.65669171  0.02349580  0.80083395    -0.08100
C2581       C  0.67450188  0.02454083  0.77377564    -0.02700
C2582       C  0.65777609  0.04397928  0.75429015     0.04100
N2583       N  0.67212198  0.04496668  0.72581088     0.66600
H2584       H  0.61477238  0.07818464  0.74773287     0.15500
H2585       H  0.66740335  0.00789048  0.81562549     0.15200
N2586       N  0.61075611  0.04213051  0.83774615     0.74300
O2587       O  0.64668427  0.03682742  0.70686224    -0.39100
O2588       O  0.70141132  0.06188571  0.71920186    -0.39100
O2589       O  0.58730750  0.02212880  0.84546531    -0.39800
O2590       O  0.62643596  0.05819249  0.85593780    -0.39800
C2591       C  0.51099167  0.20840174  0.90245143    -0.12100
C2592       C  0.98724821  0.18507151  0.90064630     0.04900
C2593       C  0.96309869  0.17815015  0.92495721    -0.07400
C2594       C  0.96728408  0.19451422  0.94896845    -0.08100
C2595       C  0.98911140  0.21992787  0.94824067    -0.02700
C2596       C  0.51031942  0.22683974  0.92518960     0.04100
N2597       N  0.52880015  0.25407690  0.92163452     0.66600
H2598       H  0.52717960  0.21435178  0.88321718     0.15500
H2599       H  0.95203519  0.18770056  0.96815716     0.15200
N2600       N  0.93357020  0.15515571  0.92562984     0.74300
O2601       O  0.55644085  0.25849002  0.90271035    -0.39100
O2602       O  0.51461617  0.27442817  0.93529812    -0.39100
O2603       O  0.93074807  0.14036695  0.94746219    -0.39800
O2604       O  0.90295814  0.15444055  0.90814492    -0.39800
C2605       C  0.86417292  0.04884980  0.95138806    -0.12100
C2606       C  0.86117905  0.07372865  0.96625666     0.04900
C2607       C  0.88865140  0.07787973  0.98948698    -0.07400
C2608       C  0.91896289  0.05754279  0.99685692    -0.08100
C2609       C  0.92229607  0.03254233  0.98203703    -0.02700
C2610       C  0.89359814  0.02805262  0.95926631     0.04100
N2611       N  0.89189068  0.00244122  0.94450309     0.66600
H2612       H  0.84272668  0.04526174  0.93376647     0.15500
H2613       H  0.92004409  0.05115955  0.52281706     0.15200
N2614       N  0.86189070  0.09031289  0.51660924     0.74300
O2615       O  0.86826550  0.98349837  0.95438638    -0.39100
O2616       O  0.89848214  0.00280037  0.91838880    -0.39100
O2617       O  0.85587443  0.10840012  0.02044097    -0.39800
O2618       O  0.88995993  0.10276145  0.53107626    -0.39800
C2619       C  0.62491867  0.07175367  0.99843033    -0.12100
C2620       C  0.64751530  0.06461903  0.97405716     0.04900
C2621       C  0.63734632  0.03942235  0.96069404    -0.07400
C2622       C  0.60403004  0.02252277  0.97105801    -0.08100
C2623       C  0.57886512  0.03080049  0.99393370    -0.02700
C2624       C  0.58988990  0.05572126  0.00816316     0.04100
N2625       N  0.56484832  0.06741710  0.53119608     0.66600
H2626       H  0.63227201  0.09124713  0.00859028     0.15500
H2627       H  0.59579132  0.00369225  0.95996916     0.15200
N2628       N  0.66000526  0.03089637  0.93620639     0.74300
O2629       O  0.58132641  0.06846951  0.55539303    -0.39100
O2630       O  0.53043064  0.08055875  0.52662251    -0.39100
O2631       O  0.68270655  0.00924718  0.93719767    -0.39800
O2632       O  0.64974109  0.04103510  0.91268194    -0.39800
C2633       C  0.00422583  0.04384866  0.90520084    -0.12100
C2634       C  0.51494795  0.07151405  0.90835291     0.04900
C2635       C  0.52141010  0.08411852  0.93483589    -0.07400
C2636       C  0.51319922  0.06847201  0.95902585    -0.08100
C2637       C  0.50586514  0.03996031  0.95725688    -0.02700
C2638       C  0.00415443  0.02704342  0.92919597     0.04100
N2639       N  0.02307946  0.49919965  0.92854442     0.66600
H2640       H  0.00009347  0.03457779  0.88468821     0.15500
H2641       H  0.51478623  0.07817796  0.97941564     0.15200
N2642       N  0.53794221  0.11191649  0.93762350     0.74300
O2643       O  0.99564244  0.48257175  0.93836114    -0.39100
O2644       O  0.05366472  0.48987715  0.91395331    -0.39100
O2645       O  0.53060897  0.12542211  0.95970932    -0.39800
O2646       O  0.56841969  0.11995014  0.92208744    -0.39800
C2647       C  0.88604273  0.48889092  0.53752048    -0.12100
C2648       C  0.91591067  0.48075167  0.51718647     0.04900
C2649       C  0.91020634  0.45493101  0.50348504    -0.07400
C2650       C  0.87482369  0.43819422  0.51031922    -0.08100
C2651       C  0.84629660  0.44576591  0.53153404    -0.02700
C2652       C  0.85225843  0.47117448  0.54542536     0.04100
N2653       N  0.82673915  0.47803134  0.56923443     0.66600
H2654       H  0.89689241  0.00429675  0.55187037     0.15500
H2655       H  0.87105656  0.41826763  0.50017145     0.15200
N2656       N  0.94057533  0.44491328  0.48328188     0.74300
O2657       O  0.84687635  0.97146624  0.59461600    -0.39100
O2658       O  0.79977863  0.49751509  0.56756693    -0.39100
O2659       O  0.95087571  0.41961379  0.48313028    -0.39800
O2660       O  0.90901155  0.43645855  0.95508755    -0.39800
C2661       C  0.57402715  0.45317738  0.00940294    -0.12100
C2662       C  0.57234421  0.47950041  0.52673778     0.04900
C2663       C  0.59687127  0.48011707  0.55182790    -0.07400
C2664       C  0.62722617  0.45918596  0.55718263    -0.08100
C2665       C  0.63448994  0.43777939  0.53802399    -0.02700
C2666       C  0.61054019  0.43734057  0.51286199     0.04100
N2667       N  0.60586672  0.40839509  0.99827417     0.66600
H2668       H  0.55099622  0.44967337  0.99265990     0.15500
H2669       H  0.64582028  0.45981462  0.57647130     0.15200
N2670       N  0.59247298  0.50180763  0.57191786     0.74300
O2671       O  0.57176334  0.39441687  0.99519363    -0.39100
O2672       O  0.63725046  0.40416630  0.98206189    -0.39100
O2673       O  0.59329576  0.49587351  0.59775108    -0.39800
O2674       O  0.63490881  0.02461654  0.55346129    -0.39800
C2675       C  0.98371401  0.46024015  0.60446225    -0.12100
C2676       C  0.48767639  0.43445595  0.60006039     0.04900
C2677       C  0.47868200  0.42421753  0.57282004    -0.07400
C2678       C  0.48147130  0.44223949  0.54978000    -0.08100
C2679       C  0.48800482  0.47066427  0.55341134    -0.02700
C2680       C  0.98322773  0.47906382  0.58188417     0.04100
N2681       N  0.97516730  0.50774197  0.58718068     0.66600
H2682       H  0.98174948  0.46795433  0.62573642     0.15500
H2683       H  0.47761393  0.43403515  0.52889683     0.15200
N2684       N  0.46637638  0.39584554  0.56806989     0.74300
O2685       O  0.93810381  0.51526911  0.59485560    -0.39100
O2686       O  0.00602151  0.52473480  0.58837995    -0.39100
O2687       O  0.43674274  0.38507277  0.58258099    -0.39800
O2688       O  0.47702530  0.38409682  0.54552509    -0.39800
C2689       C  0.49125312  0.98697408  0.02871634     0.02400
C2690       C  0.53303621  0.99618793  0.02083971     0.02400
C2691       C  0.53890275  0.51802256  0.49900422     0.02400
C2692       C  0.00241287  0.52629192  0.48525973     0.02400
C2693       C  0.96063468  0.51710933  0.49285053     0.02400
C2694       C  0.95585698  0.99461914  0.01160031     0.02400
Fe2695     Fe  0.94655314  0.61925908  0.34441027     1.65800
Fe2696     Fe  0.55497737  0.63051412  0.34126208     1.73200
Fe2697     Fe  0.99921439  0.61851882  0.28141096     1.54400
O2698       O  0.95812068  0.58462444  0.28152471    -0.81500
O2699       O  0.57498546  0.66000318  0.31320391    -0.79800
O2700       O  0.92159976  0.58682969  0.32142534    -0.84000
O2701       O  0.91611423  0.64830157  0.31936670    -0.78900
O2702       O  0.54990255  0.59103756  0.28040670    -0.80600
O2703       O  0.52951331  0.66217046  0.36530697    -0.83400
C2704       C  0.92002063  0.65563937  0.29386723     0.97400
C2705       C  0.92882376  0.57588120  0.29782476     1.04800
O2706       O  0.50034936  0.62255833  0.32150547    -1.12400
O2707       O  0.54301104  0.60283623  0.37274844    -0.74800
O2708       O  0.97261181  0.59078403  0.37191414    -0.78300
O2709       O  0.94815426  0.64548885  0.27751896    -0.79000
C2710       C  0.51119015  0.58915657  0.38174152     0.96300
O2711       O  0.96251257  0.65051001  0.37142085    -0.76900
O2712       O  0.58629458  0.59902235  0.32009993    -0.82100
C2713       C  0.56779818  0.66546158  0.28769126     0.98900
C2714       C  0.58045960  0.58570140  0.29742912     1.04800
O2715       O  0.54086601  0.65190450  0.27310429    -0.77800
C2716       C  0.99468617  0.66552631  0.37718125     1.03100
C2717       C  0.99448436  0.73925768  0.47228358     0.02400
C2718       C  0.53447398  0.74292631  0.48519164     0.02400
C2719       C  0.53797116  0.76339365  0.00585117     0.02400
C2720       C  0.00142574  0.77260316  0.02230769     0.02400
C2721       C  0.96022257  0.76769700  0.01025436     0.02400
C2722       C  0.95693970  0.75134682  0.48406823     0.02400
Fe2723     Fe  0.94390155  0.87109092  0.16140182     1.65800
Fe2724     Fe  0.55213946  0.87785494  0.16001125     1.73200
Fe2725     Fe  0.00031075  0.87019625  0.22360142     1.54400
O2726       O  0.95334566  0.90002453  0.22799590    -0.81500
O2727       O  0.58387995  0.84625910  0.18140437    -0.79800
O2728       O  0.91370545  0.89756291  0.18881000    -0.84000
O2729       O  0.92384055  0.83671575  0.18319788    -0.78900
O2730       O  0.54068434  0.90269016  0.22770752    -0.80600
O2731       O  0.53652351  0.85005485  0.12936597    -0.83400
C2732       C  0.92771436  0.82751704  0.20800980     0.97400
C2733       C  0.92167497  0.90753900  0.21286953     1.04800
O2734       O  0.49840041  0.87141918  0.18108302    -1.12400
O2735       O  0.52690674  0.90969887  0.13552266    -0.74800
O2736       O  0.95556693  0.90519302  0.13633340    -0.78300
O2737       O  0.95361045  0.83837458  0.22570613    -0.79000
C2738       C  0.48999415  0.91302277  0.12442817     0.96300
O2739       O  0.96875802  0.84491868  0.13110164    -0.76900
O2740       O  0.57465520  0.90731649  0.18703925    -0.82100
C2741       C  0.58068864  0.83462451  0.20533535     0.98900
C2742       C  0.56767332  0.91508741  0.21190064     1.04800
O2743       O  0.55149999  0.84095532  0.22291630    -0.77800
C2744       C  0.00612777  0.83661393  0.12411639     1.03100
C2745       C  0.75458314  0.51413092  0.27944183     0.02400
C2746       C  0.71311430  0.50648054  0.26888393     0.02400
C2747       C  0.70755563  0.98373120  0.24918983     0.02400
C2748       C  0.74569702  0.97212279  0.23779673     0.02400
C2749       C  0.78642038  0.97975352  0.24903185     0.02400
C2750       C  0.79225416  0.50089607  0.26935976     0.02400
Fe2751     Fe  0.79984044  0.88405286  0.09146230     1.65800
Fe2752     Fe  0.69222666  0.87266721  0.09115884     1.73200
Fe2753     Fe  0.74540269  0.87997249  0.02857986     1.54400
O2754       O  0.78524430  0.91448388  0.02600780    -0.81500
O2755       O  0.66788143  0.84422294  0.06300142    -0.79800
O2756       O  0.82333187  0.91448996  0.06567143    -0.84000
O2757       O  0.83025165  0.85362729  0.06830190    -0.78900
O2758       O  0.69175799  0.90618566  0.02753250    -0.80600
O2759       O  0.71780289  0.83991732  0.11300126    -0.83400
C2760       C  0.82714530  0.84515516  0.04313797     0.97400
C2761       C  0.81509290  0.92397681  0.04151265     1.04800
O2762       O  0.74585929  0.87902602  0.07022180    -1.12400
O2763       O  0.70812697  0.89908298  0.12412256    -0.74800
O2764       O  0.77469081  0.91471177  0.11694220    -0.78300
O2765       O  0.79859489  0.85380453  0.02594195    -0.79000
C2766       C  0.73983386  0.91440567  0.13085837     0.96300
O2767       O  0.78481980  0.85445658  0.12097360    -0.76900
O2768       O  0.66264362  0.90512795  0.07057622    -0.82100
C2769       C  0.67640307  0.83509000  0.03879965     0.98900
C2770       C  0.66441408  0.91451659  0.04560576     1.04800
O2771       O  0.70633473  0.84530494  0.02397383    -0.77800
C2772       C  0.75352382  0.83835261  0.12586997     1.03100
C2773       C  0.74652344  0.71879426  0.25850960     0.02400
C2774       C  0.78779236  0.72685784  0.24851265     0.02400
C2775       C  0.79156782  0.74748978  0.22750019     0.02400
C2776       C  0.75324193  0.75779184  0.21458339     0.02400
C2777       C  0.71166695  0.74982325  0.22433316     0.02400
C2778       C  0.70867614  0.72891526  0.24513803     0.02400
Fe2779     Fe  0.80439573  0.63563454  0.40793581     1.65800
Fe2780     Fe  0.69630860  0.62397160  0.40780760     1.73200
Fe2781     Fe  0.74940660  0.63228030  0.47048047     1.54400
O2782       O  0.80248548  0.60610634  0.47430947    -0.81500
O2783       O  0.66599852  0.65665711  0.42780231    -0.79800
O2784       O  0.83480759  0.60551495  0.43229826    -0.84000
O2785       O  0.82729989  0.66702069  0.43318845    -0.78900
O2786       O  0.70901798  0.59789822  0.47563613    -0.80600
O2787       O  0.71236007  0.65017159  0.37490666    -0.83400
C2788       C  0.81883850  0.67696841  0.45707382     0.97400
C2789       C  0.83142364  0.59729061  0.45766578     1.04800
O2790       O  0.75005684  0.63061050  0.42888086    -1.12400
O2791       O  0.72252668  0.59110950  0.38599208    -0.74800
O2792       O  0.78985391  0.60562089  0.37836305    -0.78300
O2793       O  0.78922120  0.66706403  0.47248546    -0.79000
C2794       C  0.75828706  0.58969600  0.37310542     0.96300
O2795       O  0.77912074  0.66585288  0.38147360    -0.76900
O2796       O  0.67081205  0.59585725  0.43625808    -0.82100
C2797       C  0.66830995  0.66630760  0.45259358     0.98900
C2798       C  0.67875242  0.58754842  0.46097787     1.04800
O2799       O  0.69628975  0.65849199  0.47058127    -0.77800
C2800       C  0.74398535  0.66528442  0.36773155     1.03100
C2801       C  0.74949943  0.72065442  0.31070527    -0.12100
C2802       C  0.74321631  0.70457204  0.28644080     0.04900
C2803       C  0.73323513  0.67618270  0.28958879    -0.07400
C2804       C  0.73111799  0.66452306  0.31657979    -0.08100
C2805       C  0.74099602  0.68011888  0.34056329    -0.02700
C2806       C  0.74980402  0.70854919  0.33754517     0.04100
N2807       N  0.75814703  0.72545838  0.36148296     0.66600
H2808       H  0.75565805  0.74268139  0.30865229     0.15500
H2809       H  0.72401383  0.64263599  0.31873425     0.15200
N2810       N  0.72698836  0.65859752  0.26584271     0.74300
O2811       O  0.79628826  0.72814937  0.37034177    -0.39100
O2812       O  0.72928935  0.74167402  0.37015862    -0.39100
O2813       O  0.75792478  0.65456870  0.24926443    -0.39800
O2814       O  0.69514690  0.64228607  0.26524841    -0.39800
C2815       C  0.76925879  0.80465055  0.19651716    -0.12100
C2816       C  0.75619627  0.77747691  0.19081901     0.04900
C2817       C  0.74616347  0.76962667  0.16280402    -0.07400
C2818       C  0.74511871  0.79028106  0.14205576    -0.08100
C2819       C  0.75838209  0.81731866  0.14784769    -0.02700
C2820       C  0.77292817  0.82420802  0.17502083     0.04100
N2821       N  0.79111709  0.85082434  0.18123584     0.66600
H2822       H  0.77790440  0.81042652  0.21775047     0.15500
H2823       H  0.73534620  0.78516751  0.12084491     0.15200
N2824       N  0.73941868  0.74112910  0.15456507     0.74300
O2825       O  0.77878810  0.86369452  0.20275131    -0.39100
O2826       O  0.82615100  0.85788793  0.16981439    -0.39100
O2827       O  0.74739661  0.72142211  0.17116591    -0.39800
O2828       O  0.72986769  0.73533041  0.12947515    -0.39800
C2829       C  0.72430982  0.91667244  0.18184055    -0.12100
C2830       C  0.73732747  0.93058389  0.15729604     0.04900
C2831       C  0.75202231  0.95822911  0.15937476    -0.07400
C2832       C  0.75489688  0.97070092  0.18596577    -0.08100
C2833       C  0.74398477  0.95633664  0.21068788    -0.02700
C2834       C  0.72822145  0.92897328  0.20841974     0.04100
N2835       N  0.71691253  0.91312917  0.23273533     0.66600
H2836       H  0.71306326  0.89544425  0.18051170     0.15500
H2837       H  0.76478453  0.99218733  0.18742661     0.15200
N2838       N  0.76216140  0.97432291  0.13480490     0.74300
O2839       O  0.68073420  0.90118092  0.23366647    -0.39100
O2840       O  0.74623831  0.90537937  0.24935741    -0.39100
O2841       O  0.74018415  0.97152239  0.11265170    -0.39800
O2842       O  0.78895698  0.99398558  0.13633489    -0.39800
C2843       C  0.75620615  0.52406178  0.33025158    -0.12100
C2844       C  0.75851919  0.53458416  0.30275240     0.04900
C2845       C  0.76661748  0.56334405  0.29869251    -0.07400
C2846       C  0.76744557  0.58075924  0.32233958    -0.08100
C2847       C  0.76224777  0.57018677  0.34955038    -0.02700
C2848       C  0.75933626  0.54150077  0.35351125     0.04100
N2849       N  0.76318989  0.52975250  0.38091714     0.66600
H2850       H  0.75241323  0.50196528  0.33362073     0.15500
H2851       H  0.77162522  0.60287396  0.31954699     0.15200
N2852       N  0.77495428  0.57531024  0.27143922     0.74300
O2853       O  0.73147713  0.53015256  0.39726721    -0.39100
O2854       O  0.79995586  0.52357358  0.39042052    -0.39100
O2855       O  0.76529145  0.56268223  0.24922207    -0.39800
O2856       O  0.79330244  0.59860859  0.26944172    -0.39800
C2857       C  0.67226152  0.79245838  0.23826601    -0.12100
C2858       C  0.67453481  0.76959726  0.22009031     0.04900
C2859       C  0.64358711  0.76776242  0.19823820    -0.07400
C2860       C  0.61361392  0.78922494  0.19412745    -0.08100
C2861       C  0.61160730  0.81200548  0.21217685    -0.02700
C2862       C  0.64067227  0.81321160  0.23504057     0.04100
N2863       N  0.63952290  0.83561408  0.25467057     0.66600
H2864       H  0.69535027  0.79409910  0.25530206     0.15500
H2865       H  0.59087713  0.78774853  0.17686589     0.15200
N2866       N  0.63958120  0.74385402  0.18097827     0.74300
O2867       O  0.60561214  0.84014872  0.26847306    -0.39100
O2868       O  0.67420434  0.84717166  0.26215044    -0.39100
O2869       O  0.61032756  0.72675657  0.18722226    -0.39800
O2870       O  0.65008545  0.74600275  0.15552585    -0.39800
C2871       C  0.88849795  0.78455758  0.19448959    -0.12100
C2872       C  0.89952833  0.80347878  0.21567485     0.04900
C2873       C  0.87945641  0.80060359  0.24210186    -0.07400
C2874       C  0.84713602  0.78036425  0.24604254    -0.08100
C2875       C  0.83367688  0.76288634  0.22403205    -0.02700
C2876       C  0.85628572  0.76443325  0.19831858     0.04100
N2877       N  0.84700758  0.74610460  0.17562421     0.66600
H2878       H  0.90434045  0.78587836  0.17427394     0.15500
H2879       H  0.82996701  0.77981174  0.26581867     0.15200
N2880       N  0.88821126  0.81973558  0.26421976     0.74300
O2881       O  0.83790554  0.75625792  0.15189029    -0.39100
O2882       O  0.86208820  0.72190876  0.17666762    -0.39100
O2883       O  0.87386890  0.84414977  0.26262125    -0.39800
O2884       O  0.90396592  0.81110867  0.28708166    -0.39800
C2885       C  0.87101547  0.92283476  0.24935085    -0.12100
C2886       C  0.89172751  0.92826759  0.22390386     0.04900
C2887       C  0.88017169  0.95172906  0.20798352    -0.07400
C2888       C  0.84709349  0.96892239  0.21735983    -0.08100
C2889       C  0.82450978  0.96273055  0.24204786    -0.02700
C2890       C  0.83679293  0.93942508  0.25864582     0.04100
N2891       N  0.81484015  0.93163222  0.28428348     0.66600
H2892       H  0.88003752  0.90450995  0.26118366     0.15500
H2893       H  0.83889992  0.48728466  0.20480548     0.15200
N2894       N  0.90195270  0.95834681  0.18235560     0.74300
O2895       O  0.77855607  0.94153818  0.29058484    -0.39100
O2896       O  0.83182355  0.91435651  0.30094302    -0.39100
O2897       O  0.88073224  0.96161158  0.15994703    -0.39800
O2898       O  0.93750967  0.46829563  0.18030716    -0.39800
C2899       C  0.60466417  0.94008549  0.25137655    -0.12100
C2900       C  0.59447770  0.93854606  0.22267434     0.04900
C2901       C  0.61602254  0.95674685  0.20391666    -0.07400
C2902       C  0.65049881  0.97297221  0.21341684    -0.08100
C2903       C  0.66451261  0.97167537  0.24138419    -0.02700
C2904       C  0.63965786  0.95622184  0.26086688     0.04100
N2905       N  0.65168691  0.95462501  0.28987011     0.66600
H2906       H  0.58824650  0.92665052  0.26617428     0.15500
H2907       H  0.66794187  0.98560159  0.19841919     0.15200
N2908       N  0.60435322  0.95826956  0.17485823     0.74300
O2909       O  0.62348357  0.95788096  0.30860762    -0.39100
O2910       O  0.68840422  0.94561460  0.29672014    -0.39100
O2911       O  0.56810813  0.96793062  0.16779263    -0.39800
O2912       O  0.63178470  0.95268914  0.15620427    -0.39800
C2913       C  0.60577893  0.67909762  0.48188259    -0.12100
C2914       C  0.63583669  0.68675633  0.46139005     0.04900
C2915       C  0.63342647  0.71331114  0.44915878    -0.07400
C2916       C  0.60171882  0.73203277  0.45800918    -0.08100
C2917       C  0.57118095  0.72426413  0.47827945    -0.02700
C2918       C  0.57317744  0.69738144  0.49010399     0.04100
N2919       N  0.53871112  0.68873774  0.00843762     0.66600
H2920       H  0.60383650  0.65860892  0.98997419     0.15500
H2921       H  0.60022150  0.75234931  0.44840385     0.15200
N2922       N  0.66266007  0.72134963  0.42750275     0.74300
O2923       O  0.53416045  0.70086658  0.03158318    -0.39100
O2924       O  0.51836335  0.66653117  0.00402529    -0.39100
O2925       O  0.65168932  0.71891481  0.40211592    -0.39800
O2926       O  0.69750377  0.73340922  0.43369380    -0.39800
C2927       C  0.85852046  0.72104985  0.44757839    -0.12100
C2928       C  0.84615990  0.70042883  0.46704711     0.04900
C2929       C  0.86592807  0.70030855  0.49392382    -0.07400
C2930       C  0.90022981  0.71857283  0.49929946    -0.08100
C2931       C  0.91405741  0.73801286  0.47930017    -0.02700
C2932       C  0.89128385  0.74027702  0.45383266     0.04100
N2933       N  0.90148066  0.76170465  0.43413183     0.66600
H2934       H  0.84312752  0.72187923  0.42714635     0.15500
H2935       H  0.91849914  0.70960117  0.02095945     0.15200
N2936       N  0.85899382  0.67170560  0.01260486     0.74300
O2937       O  0.91183787  0.75559029  0.40933485    -0.39100
O2938       O  0.89240724  0.78648518  0.43998529    -0.39100
O2939       O  0.88825785  0.65382657  0.01578076    -0.39800
O2940       O  0.82649792  0.67120676  0.02847227    -0.39800
C2941       C  0.63377835  0.79194939  0.04670770    -0.12100
C2942       C  0.64902100  0.81216067  0.02782380     0.04900
C2943       C  0.63292490  0.81212521  0.00005338    -0.07400
C2944       C  0.59869166  0.79439576  0.99289520    -0.08100
C2945       C  0.58134240  0.77553980  0.01240254    -0.02700
C2946       C  0.60114631  0.77321465  0.03902900     0.04100
N2947       N  0.58786480  0.75254174  0.05874659     0.66600
H2948       H  0.64666084  0.79110495  0.06786326     0.15500
H2949       H  0.58388900  0.79646077  0.97236346     0.15200
N2950       N  0.64865239  0.83126305  0.97946623     0.79900
O2951       O  0.60132271  0.72811310  0.05561311    -0.39100
O2952       O  0.57447421  0.75985145  0.08257270    -0.39100
O2953       O  0.68566043  0.82772521  0.96915039    -0.39800
O2954       O  0.62280908  0.84769354  0.96749741    -0.39800
C2955       C  0.88800726  0.77784562  0.03253384    -0.12100
C2956       C  0.92379797  0.78693508  0.01692724     0.04900
C2957       C  0.92638483  0.81523125  0.00903007    -0.07400
C2958       C  0.89432033  0.83381714  0.01763917    -0.08100
C2959       C  0.85898644  0.82470111  0.03337548    -0.02700
C2960       C  0.85561884  0.79647799  0.04062378     0.04100
N2961       N  0.81928292  0.78652865  0.05607308     0.66600
H2962       H  0.88546893  0.75637062  0.03888210     0.15500
H2963       H  0.89684230  0.85551535  0.01188413     0.15200
N2964       N  0.96105362  0.82525982  0.99186840     0.74300
O2965       O  0.78368316  0.78278060  0.04376395    -0.39100
O2966       O  0.82172526  0.78371622  0.08236714    -0.39100
O2967       O  0.96983344  0.81330298  0.96913053    -0.39800
O2968       O  0.97896069  0.84808761  0.99733544    -0.39800
C2969       C  0.52562941  0.81549446  0.04605970    -0.12100
C2970       C  0.00407461  0.78822562  0.04921539     0.04900
C2971       C  0.98205238  0.77890634  0.07360430    -0.07400
C2972       C  0.98324336  0.79515761  0.09789151    -0.08100
C2973       C  0.00991389  0.81847357  0.09955674    -0.02700
C2974       C  0.53092781  0.82929890  0.07159597     0.04100
N2975       N  0.56093540  0.85200229  0.07295197     0.66600
H2976       H  0.54157523  0.82349926  0.02754522     0.15500
H2977       H  0.96450713  0.78904352  0.11607190     0.15200
N2978       N  0.95935192  0.75287894  0.07436717     0.74300
O2979       O  0.59171772  0.85095010  0.09028532    -0.39100
O2980       O  0.56355973  0.86887016  0.05270565    -0.39100
O2981       O  0.97494430  0.73186337  0.06249648    -0.39800
O2982       O  0.92710371  0.74978980  0.09020651    -0.39800
C2983       C  0.64743805  0.72413546  0.27827306    -0.12100
C2984       C  0.66621642  0.71665273  0.25268999     0.04900
C2985       C  0.64717144  0.69509385  0.23658893    -0.07400
C2986       C  0.61089354  0.68118460  0.24716444    -0.08100
C2987       C  0.59514880  0.68672490  0.27404613    -0.02700
C2988       C  0.61262723  0.70914858  0.28924704     0.04100
N2989       N  0.59655052  0.71614996  0.31639157     0.66600
H2990       H  0.66157954  0.74067513  0.29056833     0.15500
H2991       H  0.59799402  0.66371758  0.23564212     0.15200
N2992       N  0.66579346  0.68532059  0.21078852     0.74300
O2993       O  0.62025864  0.71323634  0.33776692    -0.39100
O2994       O  0.56029722  0.72773866  0.31867955    -0.39100
O2995       O  0.70606820  0.68447284  0.20781040    -0.39800
O2996       O  0.64242966  0.67342215  0.19272431    -0.39800
C2997       C  0.87569975  0.67222019  0.25435882    -0.12100
C2998       C  0.88953731  0.67601943  0.28199675     0.04900
C2999       C  0.87387332  0.69877743  0.29729809    -0.07400
C3000       C  0.84354529  0.71658606  0.28497076    -0.08100
C3001       C  0.82652169  0.71120276  0.25817721    -0.02700
C3002       C  0.84396036  0.68904367  0.24223087     0.04100
N3003       N  0.82941337  0.68234694  0.21430537     0.66600
H3004       H  0.88811895  0.65486398  0.24255151     0.15500
H3005       H  0.83189853  0.73406818  0.29688266     0.15200
N3006       N  0.88863234  0.70420133  0.32519181     0.74300
O3007       O  0.85301490  0.66823585  0.19822451    -0.39100
O3008       O  0.79187483  0.68823739  0.20624178    -0.39100
O3009       O  0.91399254  0.72418709  0.32959638    -0.39800
O3010       O  0.87090432  0.69216390  0.34571206    -0.39800
C3011       C  0.88735038  0.53265440  0.30822682    -0.12100
C3012       C  0.90032907  0.55286688  0.28869958     0.04900
C3013       C  0.88372447  0.55164895  0.26111120    -0.07400
C3014       C  0.85151725  0.53229792  0.25450114    -0.08100
C3015       C  0.83544124  0.51388100  0.27483581    -0.02700
C3016       C  0.85627417  0.51261892  0.30120910     0.04100
N3017       N  0.84318416  0.99309621  0.32163021     0.66600
H3018       H  0.90179092  0.53224537  0.32896464     0.15500
H3019       H  0.83652399  0.53316132  0.23394568     0.15200
N3020       N  0.89632196  0.57146136  0.24026171     0.74300
O3021       O  0.83317438  0.00010689  0.34623693    -0.39100
O3022       O  0.85857139  0.96924919  0.31792424    -0.39100
O3023       O  0.91401408  0.56343230  0.21792078    -0.39800
O3024       O  0.88631006  0.59663702  0.24298356    -0.39800
C3025       C  0.62270028  0.55972204  0.26204042    -0.12100
C3026       C  0.61108605  0.56334666  0.29016548     0.04900
C3027       C  0.62903945  0.54561891  0.31068783    -0.07400
C3028       C  0.65998596  0.52595556  0.30303202    -0.08100
C3029       C  0.67483548  0.52416994  0.27528674    -0.02700
C3030       C  0.65445031  0.54058499  0.25431263     0.04100
N3031       N  0.66527687  0.53841553  0.22513348     0.66600
H3032       H  0.60837139  0.57278711  0.24598636     0.15500
H3033       H  0.67319515  0.51240414  0.31902124     0.15200
N3034       N  0.61565500  0.54702136  0.33930613     0.74300
O3035       O  0.63559708  0.53796340  0.20694775    -0.39100
O3036       O  0.70379103  0.54102919  0.21714598    -0.39100
O3037       O  0.58911043  0.52949285  0.34874368    -0.39800
O3038       O  0.63498963  0.56302314  0.35600699    -0.39800
C3039       C  0.50901950  0.70998068  0.39904578    -0.12100
C3040       C  0.99038642  0.68560709  0.40025556     0.04900
C3041       C  0.96927677  0.67818931  0.42547525    -0.07400
C3042       C  0.97167239  0.69580215  0.44855144    -0.08100
C3043       C  0.99139458  0.72183124  0.44659368    -0.02700
C3044       C  0.50862931  0.72861100  0.42163732     0.04100
N3045       N  0.52670508  0.75590379  0.41771116     0.66600
H3046       H  0.52464663  0.71586241  0.37959310     0.15500
H3047       H  0.95750342  0.68911370  0.46814304     0.15200
N3048       N  0.94616462  0.65257960  0.42834313     0.74300
O3049       O  0.55390851  0.76030825  0.39851836    -0.39100
O3050       O  0.51251414  0.77628511  0.43132350    -0.39100
O3051       O  0.95475815  0.63648924  0.44850620    -0.39800
O3052       O  0.91119354  0.64930463  0.41517842    -0.39800
C3053       C  0.86376858  0.55029381  0.45468797    -0.12100
C3054       C  0.86216836  0.57605967  0.46801839     0.04900
C3055       C  0.89056684  0.58119495  0.49051006    -0.07400
C3056       C  0.92087556  0.56108641  0.49847080    -0.08100
C3057       C  0.92309275  0.53525987  0.48502360    -0.02700
C3058       C  0.89309908  0.52969771  0.46323793     0.04100
N3059       N  0.89048924  0.50336632  0.44990934     0.66600
H3060       H  0.84147237  0.54593302  0.43771909     0.15500
H3061       H  0.91533872  0.54881500  0.02338347     0.15200
N3062       N  0.85499150  0.58670880  0.01765473     0.74300
O3063       O  0.86477268  0.48571093  0.46002158    -0.39100
O3064       O  0.89927832  0.50197599  0.42412848    -0.39100
O3065       O  0.86265762  0.61113791  0.52379985    -0.39800
O3066       O  0.88077743  0.59755980  0.03496893    -0.39800
C3067       C  0.62669777  0.57371532  0.49822624    -0.12100
C3068       C  0.64905229  0.56660833  0.47371285     0.04900
C3069       C  0.63841500  0.54134008  0.46039657    -0.07400
C3070       C  0.60565666  0.52436863  0.47122885    -0.08100
C3071       C  0.58062626  0.53275103  0.49396313    -0.02700
C3072       C  0.59157160  0.55775924  0.50800331     0.04100
N3073       N  0.55809971  0.56819752  0.02667801     0.66600
H3074       H  0.63410449  0.59321280  0.50836054     0.15500
H3075       H  0.59715664  0.50551636  0.46025878     0.15200
N3076       N  0.65883391  0.53294503  0.43506345     0.74300
O3077       O  0.55820933  0.55728625  0.05075480    -0.39100
O3078       O  0.54038809  0.59151439  0.02340928    -0.39100
O3079       O  0.67308124  0.50851962  0.43337045    -0.39800
O3080       O  0.65065475  0.54611709  0.41276359    -0.39800
C3081       C  0.00273335  0.54547609  0.40811582    -0.12100
C3082       C  0.51729702  0.57264567  0.40719689     0.04900
C3083       C  0.52328803  0.58545659  0.43361465    -0.07400
C3084       C  0.51526495  0.56986823  0.45790603    -0.08100
C3085       C  0.50849485  0.54127191  0.45632128    -0.02700
C3086       C  0.00259345  0.52911416  0.43239858     0.04100
N3087       N  0.02012260  0.99827919  0.42864526     0.66600
H3088       H  0.99567422  0.53619276  0.38794540     0.15500
H3089       H  0.51640932  0.57972309  0.47823692     0.15200
N3090       N  0.53905592  0.61345136  0.43622509     0.74300
O3091       O  0.99169032  0.98196078  0.43776921    -0.39100
O3092       O  0.05085639  0.98868961  0.41436988    -0.39100
O3093       O  0.53142845  0.62699378  0.45824168    -0.39800
O3094       O  0.56913441  0.62179968  0.42052482    -0.39800
C3095       C  0.88613983  0.98758333  0.03629894    -0.12100
C3096       C  0.91488198  0.97923983  0.01537504     0.04900
C3097       C  0.90807315  0.95365808  0.00158120    -0.07400
C3098       C  0.87226341  0.93739190  0.00863546    -0.08100
C3099       C  0.84468758  0.94514178  0.03039144    -0.02700
C3100       C  0.85203542  0.97029965  0.04449850     0.04100
N3101       N  0.82756295  0.97730822  0.06873917     0.66600
H3102       H  0.90077072  0.50308568  0.05388811     0.15500
H3103       H  0.86785119  0.91750940  0.99850764     0.15200
N3104       N  0.93877012  0.94287867  0.98197563     0.74300
O3105       O  0.85327713  0.47051460  0.09677535    -0.39100
O3106       O  0.79849053  0.99548278  0.06695678    -0.39100
O3107       O  0.95219559  0.91833212  0.98468064    -0.39800
O3108       O  0.91381972  0.93465615  0.45578879    -0.39800
C3109       C  0.57482075  0.95475921  0.50855053    -0.12100
C3110       C  0.57041708  0.97763159  0.02686359     0.04900
C3111       C  0.59662799  0.97926988  0.05112429    -0.07400
C3112       C  0.62747922  0.95863446  0.05636938    -0.08100
C3113       C  0.63341712  0.93651251  0.03782616    -0.02700
C3114       C  0.60757794  0.93499224  0.01352814     0.04100
N3115       N  0.60627141  0.91024302  0.49606473     0.66600
H3116       H  0.55219703  0.95202728  0.49143817     0.15500
H3117       H  0.64729543  0.95999108  0.07509800     0.15200
N3118       N  0.59335634  0.00167432  0.07046064     0.74300
O3119       O  0.57241244  0.89599985  0.49308887    -0.39100
O3120       O  0.63687541  0.90718167  0.47897070    -0.39100
O3121       O  0.59086195  0.99628448  0.09635200    -0.39800
O3122       O  0.63262233  0.52555097  0.05145237    -0.39800
C3123       C  0.97731696  0.95973965  0.10260473    -0.12100
C3124       C  0.48522524  0.93234136  0.10049750     0.04900
C3125       C  0.47565468  0.92237762  0.07330589    -0.07400
C3126       C  0.47868419  0.94038511  0.05015189    -0.08100
C3127       C  0.48640056  0.96878805  0.05396586    -0.02700
C3128       C  0.97770554  0.97816425  0.07957382     0.04100
N3129       N  0.96834048  0.00691304  0.08418388     0.66600
H3130       H  0.97214677  0.96769816  0.12355182     0.15500
H3131       H  0.47448952  0.93260949  0.03035588     0.15200
N3132       N  0.46300553  0.89410147  0.06843062     0.74300
O3133       O  0.93870119  0.01371213  0.10089059    -0.39100
O3134       O  0.99118141  0.02560195  0.07309254    -0.39100
O3135       O  0.43148906  0.88399507  0.08171419    -0.39800
O3136       O  0.47561510  0.88190197  0.04659991    -0.39800
C3137       C  0.49379759  0.98788560  0.52732585     0.02400
C3138       C  0.53541102  0.99755974  0.51977067     0.02400
C3139       C  0.53764809  0.51629538  0.99782597     0.02400
C3140       C  0.00165084  0.52493919  0.98266455     0.02400
C3141       C  0.95983563  0.51558470  0.99006243     0.02400
C3142       C  0.95574855  0.99532770  0.51178719     0.02400
Fe3143     Fe  0.94860260  0.61912318  0.84486293     1.65800
Fe3144     Fe  0.55558695  0.62941206  0.84132641     1.73200
Fe3145     Fe  0.00075282  0.61949297  0.78164365     1.54400
O3146       O  0.95817066  0.58637773  0.78117133    -0.81500
O3147       O  0.57617336  0.65916519  0.81363012    -0.79800
O3148       O  0.92561984  0.58580107  0.82248000    -0.84000
O3149       O  0.91624433  0.64711569  0.81935397    -0.78900
O3150       O  0.54990025  0.59053544  0.78004558    -0.80600
O3151       O  0.53073817  0.66099707  0.86591683    -0.83400
C3152       C  0.92114898  0.65587583  0.79435254     0.97400
C3153       C  0.93092741  0.57618861  0.79808398     1.04800
O3154       O  0.50082690  0.62240002  0.82124265    -1.12400
O3155       O  0.54296884  0.60121720  0.87238641    -0.74800
O3156       O  0.97640593  0.59190548  0.87304918    -0.78300
O3157       O  0.95082219  0.64732994  0.77820954    -0.79000
C3158       C  0.50992964  0.58912279  0.88191962     0.96300
O3159       O  0.96234037  0.65094949  0.87146738    -0.76900
O3160       O  0.58656124  0.59801810  0.81974075    -0.82100
C3161       C  0.56950741  0.66477956  0.78806749     0.98900
C3162       C  0.58055008  0.58501800  0.79689937     1.04800
O3163       O  0.54268492  0.65141526  0.77319616    -0.77800
C3164       C  0.99464672  0.66497481  0.87895595     1.03100
C3165       C  0.99306220  0.73589373  0.97666916     0.02400
C3166       C  0.53370935  0.74380311  0.98410143     0.02400
C3167       C  0.53900047  0.76261048  0.50684380     0.02400
C3168       C  0.00260201  0.77630816  0.51739312     0.02400
C3169       C  0.96150400  0.77129379  0.50539735     0.02400
C3170       C  0.95564292  0.74778671  0.98884321     0.02400
Fe3171     Fe  0.94467622  0.86934154  0.65987577     1.65800
Fe3172     Fe  0.55450098  0.87864592  0.65950329     1.73200
Fe3173     Fe  0.00101939  0.86976928  0.72220298     1.54400
O3174       O  0.95003236  0.89702592  0.72647066    -0.81500
O3175       O  0.58632700  0.84745420  0.68158252    -0.79800
O3176       O  0.91550518  0.89790676  0.68524375    -0.84000
O3177       O  0.92301396  0.83680272  0.68369670    -0.78900
O3178       O  0.54286735  0.90379185  0.72695242    -0.80600
O3179       O  0.53892103  0.85022133  0.62943364    -0.83400
C3180       C  0.93026401  0.82598173  0.70745800     0.97400
C3181       C  0.92080369  0.90627606  0.71019131     1.04800
O3182       O  0.50041670  0.87272171  0.68043207    -1.12400
O3183       O  0.52985633  0.91012014  0.63419069    -0.74800
O3184       O  0.95732471  0.90089635  0.63221817    -0.78300
O3185       O  0.95891615  0.83548153  0.72406760    -0.79000
C3186       C  0.49290753  0.91403682  0.62334022     0.96300
O3187       O  0.96852295  0.84116829  0.63157806    -0.76900
O3188       O  0.57656889  0.90856354  0.68615115    -0.82100
C3189       C  0.58243643  0.83577687  0.70544143     0.98900
C3190       C  0.56966785  0.91626717  0.71105286     1.04800
O3191       O  0.55256768  0.84193251  0.72256896    -0.77800
C3192       C  0.00515087  0.83881537  0.62002440     1.03100
C3193       C  0.75566547  0.51509942  0.77828778     0.02400
C3194       C  0.71453917  0.50744540  0.76719262     0.02400
C3195       C  0.70949244  0.98546343  0.74723117     0.02400
C3196       C  0.74746651  0.97363509  0.73589504     0.02400
C3197       C  0.78836221  0.98074791  0.74723822     0.02400
C3198       C  0.79371458  0.50177336  0.76874382     0.02400
Fe3199     Fe  0.80010121  0.88463715  0.59057699     1.65800
Fe3200     Fe  0.69237610  0.87332078  0.59058632     1.73200
Fe3201     Fe  0.74531815  0.88035505  0.52782514     1.54400
O3202       O  0.78426941  0.91526090  0.52510095    -0.81500
O3203       O  0.66842837  0.84445231  0.56275977    -0.79800
O3204       O  0.82273885  0.91539181  0.56460405    -0.84000
O3205       O  0.83066155  0.85435527  0.56725608    -0.78900
O3206       O  0.69166354  0.90615209  0.52661078    -0.80600
O3207       O  0.71799162  0.84089605  0.61311868    -0.83400
C3208       C  0.82768726  0.84627022  0.54194950     0.97400
C3209       C  0.81389959  0.92508343  0.54056425     1.04800
O3210       O  0.74599076  0.87948160  0.56952255    -1.12400
O3211       O  0.70805135  0.90016262  0.62307013    -0.74800
O3212       O  0.77501293  0.91522246  0.61611090    -0.78300
O3213       O  0.79892182  0.85486422  0.52494556    -0.79000
C3214       C  0.73993351  0.91530582  0.62976449     0.96300
O3215       O  0.78554125  0.85487415  0.62031731    -0.76900
O3216       O  0.66263005  0.90560473  0.56963149    -0.82100
C3217       C  0.67700599  0.83509233  0.53864851     0.98900
C3218       C  0.66452813  0.91475304  0.54458018     1.04800
O3219       O  0.70673351  0.84532163  0.52360364    -0.77800
C3220       C  0.75394435  0.83910545  0.62573662     1.03100
C3221       C  0.74703901  0.71933218  0.75900086     0.02400
C3222       C  0.78843122  0.72714566  0.74899300     0.02400
C3223       C  0.79245205  0.74763768  0.72774378     0.02400
C3224       C  0.75417585  0.75826132  0.71490676     0.02400
C3225       C  0.71250015  0.75048136  0.72477761     0.02400
C3226       C  0.70929750  0.72955025  0.74557664     0.02400
Fe3227     Fe  0.80202443  0.63547723  0.90825978     1.65800
Fe3228     Fe  0.69391996  0.62389618  0.90745019     1.73200
Fe3229     Fe  0.74656109  0.63144566  0.97050114     1.54400
O3230       O  0.79801656  0.60393307  0.97392393    -0.81500
O3231       O  0.66351937  0.65619440  0.92793864    -0.79800
O3232       O  0.83210363  0.60524213  0.93267883    -0.84000
O3233       O  0.82465804  0.66672181  0.93365549    -0.78900
O3234       O  0.70455706  0.59815728  0.97527591    -0.80600
O3235       O  0.71033109  0.65063649  0.87503258    -0.83400
C3236       C  0.81709532  0.67561732  0.95805629     0.97400
C3237       C  0.82767857  0.59567735  0.95754197     1.04800
O3238       O  0.74747753  0.63028634  0.92887492    -1.12400
O3239       O  0.72010455  0.59136593  0.88526025    -0.74800
O3240       O  0.78774940  0.60563039  0.87844693    -0.78300
O3241       O  0.78816042  0.66513669  0.97360116    -0.79000
C3242       C  0.75614586  0.58985889  0.87276198     0.96300
O3243       O  0.77726143  0.66585911  0.88193375    -0.76900
O3244       O  0.66823358  0.59524062  0.93519103    -0.82100
C3245       C  0.66650699  0.66626939  0.95253031     0.98900
C3246       C  0.67511579  0.58755336  0.96023111     1.04800
O3247       O  0.69481705  0.65873634  0.97044262    -0.77800
C3248       C  0.74224114  0.66562995  0.86810809     1.03100
C3249       C  0.74876961  0.72116233  0.81125833    -0.12100
C3250       C  0.74342296  0.70505344  0.78691094     0.04900
C3251       C  0.73377556  0.67660075  0.78994209    -0.07400
C3252       C  0.73120847  0.66488484  0.81687624    -0.08100
C3253       C  0.73996707  0.68054445  0.84098237    -0.02700
C3254       C  0.74844484  0.70905237  0.83811358     0.04100
N3255       N  0.75604043  0.72599896  0.86215786     0.66600
H3256       H  0.75475798  0.74321385  0.80926686     0.15500
H3257       H  0.72465241  0.64289933  0.81891336     0.15200
N3258       N  0.72814007  0.65901143  0.76614814     0.74300
O3259       O  0.79271420  0.72596699  0.87368695    -0.39100
O3260       O  0.72916788  0.74452547  0.86851999    -0.39100
O3261       O  0.75979652  0.65447463  0.75030098    -0.39800
O3262       O  0.69602862  0.64294265  0.76511695    -0.39800
C3263       C  0.77115371  0.80511195  0.69648674    -0.12100
C3264       C  0.75709025  0.77805832  0.69105276     0.04900
C3265       C  0.74547929  0.77047619  0.66321262    -0.07400
C3266       C  0.74440119  0.79115372  0.64243151    -0.08100
C3267       C  0.75871313  0.81805643  0.64790934    -0.02700
C3268       C  0.77419797  0.82476627  0.67494235     0.04100
N3269       N  0.79240746  0.85139455  0.68104482     0.66600
H3270       H  0.78081869  0.81076720  0.71757158     0.15500
H3271       H  0.73379327  0.78611668  0.62137240     0.15200
N3272       N  0.73734962  0.74210892  0.65510567     0.74300
O3273       O  0.78020215  0.86432068  0.70255983    -0.39100
O3274       O  0.82719074  0.85855232  0.66936703    -0.39100
O3275       O  0.74724774  0.72221366  0.67105075    -0.39800
O3276       O  0.72460634  0.73660665  0.63054505    -0.39800
C3277       C  0.72585859  0.91769780  0.68075923    -0.12100
C3278       C  0.73741262  0.93166418  0.65597106     0.04900
C3279       C  0.75074811  0.95959571  0.65753308    -0.07400
C3280       C  0.75429419  0.97227941  0.68395977    -0.08100
C3281       C  0.74521134  0.95780723  0.70892633    -0.02700
C3282       C  0.73024684  0.93025288  0.70714487     0.04100
N3283       N  0.71965047  0.91464164  0.73174817     0.66600
H3284       H  0.71536684  0.89629416  0.67972603     0.15500
H3285       H  0.76326269  0.99395171  0.68513684     0.15200
N3286       N  0.75854324  0.97571261  0.63262614     0.74300
O3287       O  0.68454717  0.90143720  0.73269199    -0.39100
O3288       O  0.74859050  0.90931292  0.74958737    -0.39100
O3289       O  0.73550232  0.97213044  0.61105606    -0.39800
O3290       O  0.78394758  0.99616529  0.63340688    -0.39800
C3291       C  0.74984499  0.52482102  0.82889912    -0.12100
C3292       C  0.75839681  0.53526673  0.80193758     0.04900
C3293       C  0.77074256  0.56349127  0.79882986    -0.07400
C3294       C  0.77151835  0.58043038  0.82282918    -0.08100
C3295       C  0.76076392  0.57006412  0.84947091    -0.02700
C3296       C  0.75123886  0.54173564  0.85272614     0.04100
N3297       N  0.74505373  0.52959639  0.88003725     0.66600
H3298       H  0.74287759  0.50293394  0.83139077     0.15500
H3299       H  0.77919371  0.60224421  0.82065437     0.15200
N3300       N  0.78260005  0.57544565  0.77210927     0.74300
O3301       O  0.72250237  0.50796062  0.88273954    -0.39100
O3302       O  0.76702438  0.53793275  0.90070552    -0.39100
O3303       O  0.77355151  0.56352966  0.74937937    -0.39800
O3304       O  0.80237825  0.59831815  0.77108507    -0.39800
C3305       C  0.67705863  0.79508739  0.73651983    -0.12100
C3306       C  0.67573549  0.77057929  0.72065684     0.04900
C3307       C  0.64101458  0.76706530  0.70159853    -0.07400
C3308       C  0.61123444  0.78863448  0.69735443    -0.08100
C3309       C  0.61320151  0.81323587  0.71279179    -0.02700
C3310       C  0.64580874  0.81609925  0.73343912     0.04100
N3311       N  0.64833018  0.84011357  0.75111870     0.66600
H3312       H  0.70274724  0.79772817  0.75174996     0.15500
H3313       H  0.58578524  0.78595818  0.68194773     0.15200
N3314       N  0.63355061  0.74164844  0.68723691     0.74300
O3315       O  0.61465019  0.84990718  0.76204259    -0.39100
O3316       O  0.68455718  0.84854131  0.75973876    -0.39100
O3317       O  0.59971075  0.72830837  0.69312841    -0.39800
O3318       O  0.64965888  0.73853429  0.66323124    -0.39800
C3319       C  0.88916293  0.78397093  0.69349922    -0.12100
C3320       C  0.90269271  0.80168365  0.71513007     0.04900
C3321       C  0.88445766  0.79804832  0.74197715    -0.07400
C3322       C  0.85091863  0.77866763  0.74596104    -0.08100
C3323       C  0.83508414  0.76233708  0.72368275    -0.02700
C3324       C  0.85621497  0.76434963  0.69742342     0.04100
N3325       N  0.84434452  0.74725970  0.67420360     0.66600
H3326       H  0.90357263  0.78596044  0.67288344     0.15500
H3327       H  0.83511793  0.77773563  0.76619872     0.15200
N3328       N  0.89666992  0.81559822  0.76470962     0.74300
O3329       O  0.83766701  0.75837804  0.65056475    -0.39100
O3330       O  0.85378656  0.72191045  0.67504803    -0.39100
O3331       O  0.87596122  0.83761394  0.76919111    -0.39800
O3332       O  0.92389663  0.80720985  0.78253005    -0.39800
C3333       C  0.87288140  0.92361341  0.74751070    -0.12100
C3334       C  0.89076197  0.92728350  0.72084534     0.04900
C3335       C  0.87750202  0.94983415  0.70410415    -0.07400
C3336       C  0.84645757  0.96813318  0.71417121    -0.08100
C3337       C  0.82620397  0.96345799  0.74002884    -0.02700
C3338       C  0.83976612  0.94088677  0.75726922     0.04100
N3339       N  0.81990277  0.93429702  0.78394045     0.66600
H3340       H  0.88302175  0.90599497  0.76004609     0.15500
H3341       H  0.83941150  0.48567266  0.70289353     0.15200
N3342       N  0.89478350  0.95414877  0.67664322     0.74300
O3343       O  0.78437669  0.94473586  0.79109853    -0.39100
O3344       O  0.83762986  0.91721616  0.80047918    -0.39100
O3345       O  0.87268240  0.94778296  0.65534258    -0.39800
O3346       O  0.93167816  0.46796562  0.67568428    -0.39800
C3347       C  0.60773276  0.94077967  0.75030466    -0.12100
C3348       C  0.59641337  0.93973290  0.72177754     0.04900
C3349       C  0.61703189  0.95830283  0.70298041    -0.07400
C3350       C  0.65168732  0.97451949  0.71217580    -0.08100
C3351       C  0.66647923  0.97312046  0.73995162    -0.02700
C3352       C  0.64280993  0.95697867  0.75954932     0.04100
N3353       N  0.65621399  0.95462067  0.78828092     0.66600
H3354       H  0.59218936  0.92687132  0.76505815     0.15500
H3355       H  0.66873071  0.98718075  0.69702965     0.15200
N3356       N  0.60409432  0.96029042  0.67417802     0.74300
O3357       O  0.62843345  0.95513265  0.80758151    -0.39100
O3358       O  0.69430139  0.94748360  0.79413626    -0.39100
O3359       O  0.56736944  0.96978676  0.66800629    -0.39800
O3360       O  0.63095432  0.95563551  0.65491612    -0.39800
C3361       C  0.60341052  0.67931206  0.98104825    -0.12100
C3362       C  0.63438357  0.68693623  0.96115310     0.04900
C3363       C  0.63314664  0.71364616  0.94922701    -0.07400
C3364       C  0.60168600  0.73261650  0.95786905    -0.08100
C3365       C  0.57028714  0.72492796  0.97760189    -0.02700
C3366       C  0.57112419  0.69787233  0.98910864     0.04100
N3367       N  0.54139431  0.68802642  0.50974501     0.66600
H3368       H  0.60703468  0.65852523  0.49107957     0.15500
H3369       H  0.60101004  0.75305302  0.94848413     0.15200
N3370       N  0.66318131  0.72152767  0.92797490     0.74300
O3371       O  0.53872672  0.69915478  0.53353990    -0.39100
O3372       O  0.51990538  0.66637198  0.50480979    -0.39100
O3373       O  0.65307883  0.71914667  0.90243145    -0.39800
O3374       O  0.69882250  0.73228987  0.93467469    -0.39800
C3375       C  0.85617503  0.72050453  0.95132576    -0.12100
C3376       C  0.84517388  0.69809218  0.96893357     0.04900
C3377       C  0.86658329  0.69521570  0.99494813    -0.07400
C3378       C  0.90003318  0.71344678  0.00199242    -0.08100
C3379       C  0.91275494  0.73476477  0.98367720    -0.02700
C3380       C  0.88917122  0.73914016  0.95878108     0.04100
N3381       N  0.89909238  0.76197351  0.94071694     0.66600
H3382       H  0.83976715  0.72311910  0.93138449     0.15500
H3383       H  0.91779392  0.71672138  0.51890526     0.15200
N3384       N  0.85400316  0.68074985  0.51534899     0.74300
O3385       O  0.90811047  0.75780194  0.91528228    -0.39100
O3386       O  0.89203029  0.78634254  0.94897869    -0.39100
O3387       O  0.88284589  0.67019501  0.53077178    -0.39800
O3388       O  0.81528226  0.67931683  0.52327609    -0.39800
C3389       C  0.63482006  0.79187078  0.54724057    -0.12100
C3390       C  0.64984948  0.81187337  0.52805996     0.04900
C3391       C  0.63372102  0.81136171  0.50033363    -0.07400
C3392       C  0.59969636  0.79339873  0.49341651    -0.08100
C3393       C  0.58245731  0.77478120  0.51319391    -0.02700
C3394       C  0.60229774  0.77292860  0.53986653     0.04100
N3395       N  0.58925548  0.75251670  0.55992689     0.66600
H3396       H  0.64773372  0.79137626  0.56839875     0.15500
H3397       H  0.58479645  0.79523643  0.47289475     0.15200
N3398       N  0.64888516  0.83046386  0.47958792     0.79900
O3399       O  0.60377623  0.72825849  0.55751295    -0.39100
O3400       O  0.57543081  0.76019975  0.58352346    -0.39100
O3401       O  0.68407947  0.82572349  0.46729663    -0.39800
O3402       O  0.62329114  0.84811917  0.46933856    -0.39800
C3403       C  0.89223906  0.78053143  0.53132152    -0.12100
C3404       C  0.92464246  0.78976332  0.51292997     0.04900
C3405       C  0.92434875  0.81775714  0.50389131    -0.07400
C3406       C  0.89199087  0.83570798  0.51331041    -0.08100
C3407       C  0.85983554  0.82637837  0.53161097    -0.02700
C3408       C  0.85995267  0.79859836  0.54066361     0.04100
N3409       N  0.82740251  0.78854700  0.55932843     0.66600
H3410       H  0.89230682  0.75941039  0.53890161     0.15500
H3411       H  0.89212667  0.85716792  0.50648792     0.15200
N3412       N  0.95705792  0.82835181  0.48549619     0.74300
O3413       O  0.78875776  0.78681072  0.55114604    -0.39100
O3414       O  0.83689144  0.78259298  0.58440422    -0.39100
O3415       O  0.96469367  0.81642999  0.46255054    -0.39800
O3416       O  0.97487467  0.85131884  0.49059233    -0.39800
C3417       C  0.52662971  0.81554721  0.54607551    -0.12100
C3418       C  0.00490920  0.79176393  0.54419055     0.04900
C3419       C  0.98589522  0.78090980  0.56894423    -0.07400
C3420       C  0.98649206  0.79681924  0.59341234    -0.08100
C3421       C  0.00854414  0.82209033  0.59442261    -0.02700
C3422       C  0.53181268  0.82986363  0.57130985     0.04100
N3423       N  0.56046503  0.85331304  0.57194199     0.66600
H3424       H  0.54209650  0.82339665  0.52731667     0.15500
H3425       H  0.97087343  0.78901261  0.61217862     0.15200
N3426       N  0.96712587  0.75360308  0.56988807     0.74300
O3427       O  0.59164699  0.85342101  0.58899337    -0.39100
O3428       O  0.56153022  0.86987461  0.55138105    -0.39100
O3429       O  0.98405237  0.73390598  0.55655027    -0.39800
O3430       O  0.93688783  0.74829366  0.58678410    -0.39800
C3431       C  0.64830966  0.72418172  0.77893603    -0.12100
C3432       C  0.66683296  0.71722373  0.75311003     0.04900
C3433       C  0.64808604  0.69563518  0.73695256    -0.07400
C3434       C  0.61239613  0.68117204  0.74760608    -0.08100
C3435       C  0.59703622  0.68616047  0.77471027    -0.02700
C3436       C  0.61432084  0.70853578  0.79008715     0.04100
N3437       N  0.59910987  0.71475116  0.81762863     0.66600
H3438       H  0.66230122  0.74066835  0.79137072     0.15500
H3439       H  0.59969382  0.66378803  0.73586292     0.15200
N3440       N  0.66645083  0.68650694  0.71087091     0.74300
O3441       O  0.62237497  0.70938105  0.83872696    -0.39100
O3442       O  0.56478336  0.72839569  0.82065111    -0.39100
O3443       O  0.70668552  0.68438114  0.70829438    -0.39800
O3444       O  0.64258845  0.67607171  0.69216704    -0.39800
C3445       C  0.87628499  0.67230443  0.75503938    -0.12100
C3446       C  0.89003259  0.67600107  0.78270600     0.04900
C3447       C  0.87387393  0.69846928  0.79818945    -0.07400
C3448       C  0.84351115  0.71631901  0.78589559    -0.08100
C3449       C  0.82694589  0.71126888  0.75887969    -0.02700
C3450       C  0.84451700  0.68915496  0.74291561     0.04100
N3451       N  0.83002520  0.68250228  0.71497130     0.66600
H3452       H  0.88889435  0.65501782  0.74319461     0.15500
H3453       H  0.83160693  0.73363097  0.79794921     0.15200
N3454       N  0.88829530  0.70359014  0.82621259     0.74300
O3455       O  0.85371292  0.66846350  0.69887956    -0.39100
O3456       O  0.79250341  0.68843082  0.70685986    -0.39100
O3457       O  0.91462672  0.72298982  0.83088362    -0.39800
O3458       O  0.87006229  0.69156731  0.84655203    -0.39800
C3459       C  0.88693586  0.53424488  0.80916326    -0.12100
C3460       C  0.90261661  0.55297408  0.78898659     0.04900
C3461       C  0.88835112  0.55027582  0.76094261    -0.07400
C3462       C  0.85590374  0.53106120  0.75434533    -0.08100
C3463       C  0.83697116  0.51434305  0.77517193    -0.02700
C3464       C  0.85526012  0.51455675  0.80239957     0.04100
N3465       N  0.84411780  0.99467288  0.82110294     0.66600
H3466       H  0.89936981  0.53490972  0.83043140     0.15500
H3467       H  0.84281287  0.53091470  0.73323326     0.15200
N3468       N  0.90342106  0.56857963  0.73941530     0.74300
O3469       O  0.83149995  0.00242263  0.84494891    -0.39100
O3470       O  0.86200139  0.97132965  0.81921247    -0.39100
O3471       O  0.92676464  0.55938316  0.71992699    -0.39800
O3472       O  0.89034803  0.59331657  0.73847631    -0.39800
C3473       C  0.62507828  0.56125938  0.76119627    -0.12100
C3474       C  0.61127212  0.56298496  0.78909589     0.04900
C3475       C  0.62733215  0.54379956  0.80889326    -0.07400
C3476       C  0.65853431  0.52445514  0.80087157    -0.08100
C3477       C  0.67577982  0.52465268  0.77365636    -0.02700
C3478       C  0.65719420  0.54249770  0.75328258     0.04100
N3479       N  0.67025828  0.54203363  0.72449078     0.66600
H3480       H  0.61214918  0.57541753  0.74559201     0.15500
H3481       H  0.66996326  0.50959495  0.81620712     0.15200
N3482       N  0.61168717  0.54337393  0.83706142     0.74300
O3483       O  0.64211218  0.53835537  0.70569087    -0.39100
O3484       O  0.70622381  0.55210470  0.71759537    -0.39100
O3485       O  0.58374159  0.52569521  0.84420602    -0.39800
O3486       O  0.63061141  0.55745990  0.85563492    -0.39800
C3487       C  0.51047448  0.71024881  0.89821137    -0.12100
C3488       C  0.98924408  0.68433462  0.90273016     0.04900
C3489       C  0.96666259  0.67650758  0.92744988    -0.07400
C3490       C  0.97003399  0.69310657  0.95137625    -0.08100
C3491       C  0.99000086  0.71912026  0.95040255    -0.02700
C3492       C  0.50951704  0.72906265  0.92065227     0.04100
N3493       N  0.52807691  0.75623577  0.91684596     0.66600
H3494       H  0.52730279  0.71572834  0.87907065     0.15500
H3495       H  0.95623271  0.68576631  0.97083738     0.15200
N3496       N  0.94013081  0.65205086  0.92882875     0.74300
O3497       O  0.55609705  0.76036250  0.89809445    -0.39100
O3498       O  0.51336144  0.77680834  0.92993858    -0.39100
O3499       O  0.94035889  0.63729125  0.95076721    -0.39800
O3500       O  0.90856098  0.64976790  0.91224021    -0.39800
C3501       C  0.87517777  0.55563337  0.94684121    -0.12100
C3502       C  0.85815509  0.57351690  0.96714206     0.04900
C3503       C  0.87174355  0.57000545  0.99540463    -0.07400
C3504       C  0.90360951  0.55022880  0.00197499    -0.08100
C3505       C  0.92119524  0.53266530  0.98154860    -0.02700
C3506       C  0.90533549  0.53496720  0.95369673     0.04100
N3507       N  0.91697380  0.51565673  0.93237926     0.66600
H3508       H  0.86390405  0.55718266  0.92533701     0.15500
H3509       H  0.94349662  0.56585992  0.51514933     0.15200
N3510       N  0.89020558  0.60711289  0.50482594     0.74300
O3511       O  0.90613362  0.49067788  0.93546857    -0.39100
O3512       O  0.92499060  0.52440319  0.90792572    -0.39100
O3513       O  0.81578312  0.58446761  0.02431250    -0.39800
O3514       O  0.92263750  0.62284820  0.50321800    -0.39800
C3515       C  0.61984301  0.57474620  0.99559387    -0.12100
C3516       C  0.64542622  0.56681142  0.97280430     0.04900
C3517       C  0.63836313  0.54064835  0.96057243    -0.07400
C3518       C  0.60584101  0.52309747  0.97090050    -0.08100
C3519       C  0.57879631  0.53160212  0.99274351    -0.02700
C3520       C  0.58622388  0.55773506  0.00536145     0.04100
N3521       N  0.56637899  0.56825003  0.53102362     0.66600
H3522       H  0.62438474  0.59502374  0.00484275     0.15500
H3523       H  0.59985880  0.50347998  0.96063326     0.15200
N3524       N  0.66309860  0.53197301  0.93703954     0.74300
O3525       O  0.58409833  0.58295858  0.54964486    -0.39100
O3526       O  0.52610738  0.56460507  0.53201528    -0.39100
O3527       O  0.69402674  0.51540868  0.94075863    -0.39800
O3528       O  0.64858696  0.53597387  0.91260117    -0.39800
C3529       C  0.02041339  0.54492321  0.90679433    -0.12100
C3530       C  0.51482019  0.57267426  0.90753554     0.04900
C3531       C  0.51511061  0.58537876  0.93428391    -0.07400
C3532       C  0.50714148  0.56881185  0.95791920    -0.08100
C3533       C  0.50594864  0.53999573  0.95586416    -0.02700
C3534       C  0.01696784  0.52854305  0.93089124     0.04100
N3535       N  0.00317924  0.99744794  0.92609411     0.66600
H3536       H  0.02264620  0.53515452  0.88642953     0.15500
H3537       H  0.50351342  0.57820444  0.97827201     0.15200
N3538       N  0.52511976  0.61435880  0.93807018     0.74300
O3539       O  0.98098742  0.98662512  0.90679081    -0.39100
O3540       O  0.03109206  0.98278552  0.93843295    -0.39100
O3541       O  0.51872189  0.62557686  0.96155703    -0.39800
O3542       O  0.54892145  0.62691608  0.92074882    -0.39800
C3543       C  0.88839193  0.98693104  0.53865844    -0.12100
C3544       C  0.91427701  0.98026058  0.51563581     0.04900
C3545       C  0.90281029  0.95728678  0.49854582    -0.07400
C3546       C  0.86592785  0.94170476  0.50528412    -0.08100
C3547       C  0.84231689  0.94712437  0.52961111    -0.02700
C3548       C  0.85326384  0.97024528  0.54604981     0.04100
N3549       N  0.82994302  0.97633823  0.57100140     0.66600
H3550       H  0.89083352  0.50813635  0.54869238     0.15500
H3551       H  0.85845462  0.92331160  0.49322908     0.15200
N3552       N  0.93008260  0.94763890  0.47620785     0.74300
O3553       O  0.83716644  0.46847079  0.59298387    -0.39100
O3554       O  0.79624416  0.99086507  0.56945635    -0.39100
O3555       O  0.97050911  0.94750812  0.47913647    -0.39800
O3556       O  0.94712348  0.95599004  0.95970230    -0.39800
C3557       C  0.57653401  0.95543248  0.00833528    -0.12100
C3558       C  0.57262273  0.97867770  0.52515109     0.04900
C3559       C  0.60320822  0.98214883  0.54686742    -0.07400
C3560       C  0.63283872  0.96097482  0.55271902    -0.08100
C3561       C  0.63424775  0.93691454  0.53644385    -0.02700
C3562       C  0.60559423  0.93415788  0.51364834     0.04100
N3563       N  0.60995540  0.91176282  0.99512488     0.66600
H3564       H  0.55613456  0.95358618  0.98992710     0.15500
H3565       H  0.65562147  0.96361526  0.56980641     0.15200
N3566       N  0.60715143  0.00741989  0.56196677     0.74300
O3567       O  0.57822190  0.89545536  0.99335004    -0.39100
O3568       O  0.63900150  0.91100250  0.97666194    -0.39100
O3569       O  0.59750498  0.00741842  0.58765599    -0.39800
O3570       O  0.60069832  0.52631311  0.56450616    -0.39800
C3571       C  0.99278205  0.96179091  0.60375958    -0.12100
C3572       C  0.48846177  0.93339908  0.59937593     0.04900
C3573       C  0.47647704  0.92371241  0.57248359    -0.07400
C3574       C  0.47934401  0.94158443  0.54923217    -0.08100
C3575       C  0.48926191  0.96975614  0.55269243    -0.02700
C3576       C  0.99116038  0.98037554  0.58092998     0.04100
N3577       N  0.99202631  0.00979533  0.58600902     0.66600
H3578       H  0.99890550  0.96953803  0.62485557     0.15500
H3579       H  0.47326329  0.93376326  0.52930478     0.15200
N3580       N  0.46138119  0.89587232  0.56812136     0.74300
O3581       O  0.97016347  0.02599640  0.57075458    -0.39100
O3582       O  0.00841233  0.01913801  0.60833659    -0.39100
O3583       O  0.42880725  0.88728455  0.58140892    -0.39800
O3584       O  0.47314863  0.88276522  0.54663192    -0.39800
loop_ 
_geom_bond_atom_site_label_1 
_geom_bond_atom_site_label_2 
_geom_bond_distance 
_geom_bond_site_symmetry_2 
_ccdc_geom_bond_type 
C1            C2   1.419   1_655  A
C1         C1798   1.425       .  A
C1          C439   1.495       .  S
C2         C1347   1.409   1_554  A
C2          C422   1.492       .  S
C3         C1346   1.412   1_545  A
C3         C1796   1.415       .  A
C3          C383   1.499       .  S
C4            C5   1.412       .  A
C4         C1795   1.415       .  A
C4         C2189   1.481       .  S
C5         C1350   1.414   1_545  A
C5          C369   1.501       .  S
C6         C1793   1.426       .  A
C6         C1349   1.417   1_554  A
C6          C408   1.486       .  S
Fe7          O23   2.045       .  S
Fe7          O13   2.068       .  S
Fe7          O20   2.062       .  S
Fe7          O12   2.061       .  S
Fe7        O1810   1.970       .  S
Fe8          O11   2.042       .  S
Fe8          O15   2.074       .  S
Fe8          O19   2.039       .  S
Fe8          O24   2.072       .  S
Fe8          O18   1.975       .  S
Fe9          O21   2.060       .  S
Fe9          O10   2.073       .  S
Fe9        O1819   2.071       .  S
Fe9        O1806   2.061       .  S
Fe9        O1810   1.981       .  S
O10          C17   1.266       .  A
O11          C25   1.261       .  A
O12          C17   1.265       .  A
O13          C16   1.272       .  A
O14       Fe1801   2.064   1_455  S
O14          C26   1.272       .  A
O15        C1820   1.270   1_455  A
C16         C310   1.474       .  S
C16          O21   1.273       .  A
C17         C324   1.489       .  S
O18       Fe1799   1.968   1_455  S
O18       Fe1801   1.979   1_455  S
O19          C22   1.262       .  A
O20        C1814   1.270       .  A
C22         C394   1.456       .  S
C22        O1812   1.271   1_455  A
O23          C28   1.261       .  A
O24          C26   1.272       .  A
C25         C299   1.478       .  S
C25          O27   1.268       .  A
C26         C338   1.477       .  S
O27       Fe1801   2.072   1_455  S
C28         C352   1.483       .  S
C28        O1807   1.270       .  A
C29          C34   1.423       .  A
C29        C1822   1.420       .  A
C29         C355   1.495       .  S
C30        C1821   1.420   1_455  A
C30         C479   1.410       .  A
C30         C229   1.489       .  S
C31         C478   1.414   1_554  A
C31        C1824   1.422       .  A
C31         C257   1.504       .  S
C32          C33   1.418       .  A
C32        C1823   1.422       .  A
C32         C282   1.485       .  S
C33         C482   1.412   1_554  A
C33         C268   1.499       .  S
C34         C481   1.412       .  A
C34         C243   1.496       .  S
Fe35         O51   2.058       .  S
Fe35         O41   2.053       .  S
Fe35         O48   2.059       .  S
Fe35         O40   2.056       .  S
Fe35       O1838   1.972       .  S
Fe36         O39   2.081       .  S
Fe36         O43   2.046       .  S
Fe36         O47   2.080       .  S
Fe36         O52   2.045       .  S
Fe36         O46   1.970   1_455  S
Fe37         O49   2.109       .  S
Fe37         O38   2.069       .  S
Fe37       O1847   2.083       .  S
Fe37       O1834   2.104       .  S
Fe37       O1838   1.991       .  S
O38          C45   1.272       .  A
O39          C53   1.273       .  A
O40          C45   1.270       .  A
O41          C44   1.265       .  A
O42       Fe1829   2.097       .  S
O42          C54   1.274       .  A
O43        C1848   1.264       .  A
C44         C184   1.497       .  S
C44          O49   1.275       .  A
C45         C198   1.470       .  S
O46       Fe1827   1.973       .  S
O46       Fe1829   1.990   1_655  S
O47          C50   1.270   1_455  A
O48        C1842   1.263       .  A
C50         C436   1.479       .  S
C50        O1840   1.263       .  A
O51          C56   1.270       .  A
O52          C54   1.264       .  A
C53         C173   1.487       .  S
C53          O55   1.272       .  A
C54         C212   1.493       .  S
O55       Fe1829   2.082       .  S
C56         C285   1.471       .  S
C56        O1835   1.264       .  A
C57          C58   1.428       .  A
C57          C62   1.422       .  A
C57         C156   1.495       .  S
C58         C955   1.417   1_545  A
C58         C341   1.495       .  S
C59          C60   1.421       .  A
C59         C954   1.419       .  A
C59         C215   1.499       .  S
C60          C61   1.419       .  A
C60         C145   1.500       .  S
C61         C958   1.412       .  A
C61         C201   1.481       .  S
C62         C957   1.416   1_545  A
C62         C327   1.506       .  S
Fe63         O79   2.058       .  S
Fe63         O69   2.072       .  S
Fe63         O76   2.071       .  S
Fe63         O68   2.051       .  S
Fe63         O74   1.969       .  S
Fe64         O67   2.064       .  S
Fe64         O71   2.051       .  S
Fe64         O75   2.080       .  S
Fe64         O80   2.062       .  S
Fe64         O74   1.965       .  S
Fe65         O83   2.084       .  S
Fe65         O70   2.085       .  S
Fe65         O77   2.081       .  S
Fe65         O66   2.078       .  S
Fe65         O74   1.985       .  S
O66          C73   1.270       .  A
O67          C81   1.266       .  A
O68          C73   1.265       .  A
O69          C72   1.272       .  A
O70          C82   1.275       .  A
O71          C84   1.268       .  A
C72         C271   1.477       .  S
C72          O77   1.273       .  A
C73         C411   1.476       .  S
O75          C78   1.270       .  A
O76          C78   1.269       .  A
C78         C142   1.485       .  S
O79          C84   1.266       .  A
O80          C82   1.272       .  A
C81         C254   1.492       .  S
C81          O83   1.268       .  A
C82         C425   1.476       .  S
C84         C131   1.465       .  S
C85          C86   1.421       .  A
C85          C90   1.420       .  A
C85         C114   1.500       .  S
C86          C87   1.417       .  A
C86         C313   1.491       .  S
C87          C88   1.427       .  A
C87         C187   1.515       .  S
C88          C89   1.424       .  A
C88         C128   1.480       .  S
C89          C90   1.414       .  A
C89         C170   1.509       .  S
C90         C296   1.487       .  S
Fe91        O107   2.071       .  S
Fe91         O97   2.062       .  S
Fe91        O104   2.077       .  S
Fe91         O96   2.077       .  S
Fe91        O102   1.970       .  S
Fe92         O95   2.071       .  S
Fe92         O99   2.081       .  S
Fe92        O103   2.066       .  S
Fe92        O108   2.075       .  S
Fe92        O102   1.968       .  S
Fe93        O111   2.079       .  S
Fe93         O98   2.084       .  S
Fe93        O105   2.080       .  S
Fe93         O94   2.087       .  S
Fe93        O102   1.982       .  S
O94         C101   1.276       .  A
O95         C109   1.273       .  A
O96         C101   1.275       .  A
O97         C100   1.265       .  A
O98         C110   1.270       .  A
O99         C112   1.270       .  A
C100        C240   1.491       .  S
C100        O105   1.268       .  A
C101        C366   1.485       .  S
O103        C106   1.271       .  A
O104        C106   1.270       .  A
C106        C159   1.478       .  S
O107        C112   1.269       .  A
O108        C110   1.268       .  A
C109        C226   1.472       .  S
C109        O111   1.275       .  A
C110        C380   1.490       .  S
C112        C117   1.480       .  S
C113        C114   1.408       .  A
C113        C118   1.404       .  A
C113        H120   1.084       .  S
C114        C115   1.412       .  A
C115        C116   1.403       .  A
C115        N122   1.429       .  S
C116        C117   1.404       .  A
C116        H121   1.084       .  S
C117        C118   1.407       .  A
C118        N119   1.429       .  S
N119        O123   1.262       .  A
N119        O124   1.262       .  A
N122        O126   1.262       .  A
N122        O125   1.260       .  A
C127        C128   1.400       .  A
C127        C132   1.395       .  A
C127        H134   1.084       .  S
C128        C129   1.423       .  A
C129        C130   1.402       .  A
C129        N136   1.446       .  S
C130        C131   1.397       .  A
C130        H135   1.084       .  S
C131        C132   1.411       .  A
C132        N133   1.433       .  S
N133        O137   1.262       .  A
N133        O138   1.262       .  A
N136        O140   1.263       .  A
N136        O139   1.259       .  A
C141        C142   1.405       .  A
C141        C146   1.405       .  A
C141        H148   1.084       .  S
C142        C143   1.411       .  A
C143        C144   1.405       .  A
C143        N150   1.435       .  S
C144        C145   1.404       .  A
C144        H149   1.084       .  S
C145        C146   1.413       .  A
C146        N147   1.429       .  S
N147        O151   1.262       .  A
N147        O152   1.261       .  A
N150        O154   1.263       .  A
N150        O153   1.262       .  A
C155        C156   1.403       .  A
C155        C160   1.402       .  A
C155        H162   1.084       .  S
C156        C157   1.421       .  A
C157        C158   1.409       .  A
C157        N164   1.443       .  S
C158        C159   1.404       .  A
C158        H163   1.084       .  S
C159        C160   1.407       .  A
C160        N161   1.437       .  S
N161        O165   1.263       .  A
N161        O166   1.263       .  A
N164        O168   1.263       .  A
N164        O167   1.260       .  A
C169        C170   1.408       .  A
C169        C174   1.410       .  A
C169        H176   1.084       .  S
C170        C171   1.417       .  A
C171        C172   1.405       .  A
C171        N178   1.425       .  S
C172        C173   1.400       .  A
C172        H177   1.084       .  S
C173        C174   1.414       .  A
C174        N175   1.435       .  S
N175        O179   1.262       .  A
N175        O180   1.262       .  A
N178        O182   1.260       .  A
N178        O181   1.262       .  A
C183        C184   1.405       .  A
C183        C188   1.406       .  A
C183        H190   1.084       .  S
C184        C185   1.410       .  A
C185        C186   1.412       .  A
C185        N192   1.428       .  S
C186        C187   1.412       .  A
C186        H191   1.083       .  S
C187        C188   1.418       .  A
C188        N189   1.431       .  S
N189        O193   1.262       .  A
N189        O194   1.259       .  A
N192        O196   1.262       .  A
N192        O195   1.262       .  A
C197        C198   1.399       .  A
C197        C202   1.404       .  A
C197        H204   1.084       .  S
C198        C199   1.407       .  A
C199        C200   1.396       .  A
C199        N206   1.431       .  S
C200        C201   1.402       .  A
C200       H1101   1.083       .  S
C201        C202   1.422       .  A
C202        N203   1.446       .  S
N203        O207   1.261       .  A
N203        O208   1.263       .  A
H205       C1096   1.083       .  S
N206       O1106   1.262       .  A
N206        O209   1.262       .  A
O210       N1102   1.262       .  A
C211        C212   1.405       .  A
C211        C216   1.409       .  A
C211        H218   1.083       .  S
C212        C213   1.417       .  A
C213        C214   1.399       .  A
C213        N220   1.431       .  S
C214        C215   1.401       .  A
C214        H219   1.083       .  S
C215        C216   1.418       .  A
C216        N217   1.434       .  S
N217        O221   1.262       .  A
N217        O222   1.261       .  A
N220        O224   1.262       .  A
N220        O223   1.262       .  A
C225        C226   1.399       .  A
C225        C230   1.400       .  A
C225        H680   1.084       .  S
C226        C227   1.408       .  A
C227        C228   1.403       .  A
C227        N234   1.428       .  S
C228        C229   1.403       .  A
C228        H233   1.082       .  S
C229        C230   1.413       .  A
C230        N679   1.431       .  S
N231        C678   1.431   1_554  S
N231        O235   1.260       .  A
N231        O236   1.261       .  A
H232        C673   1.084       .  S
N234        O238   1.262       .  A
N234        O237   1.262       .  A
C239        C240   1.409       .  A
C239        C244   1.407       .  A
C239        H246   1.084       .  S
C240        C241   1.416       .  A
C241        C242   1.404       .  A
C241        N696   1.435       .  S
C242        C243   1.404       .  A
C242        H695   1.083       .  S
C243        C244   1.408       .  A
C244        N245   1.430       .  S
N245        O249   1.262       .  A
N245        O250   1.261       .  A
H247        C690   1.084       .  S
N248        C689   1.435   1_554  S
N248        O252   1.262       .  A
N248        O251   1.262       .  A
C253        C254   1.405       .  A
C253        C258   1.405       .  A
C253        H260   1.084       .  S
C254        C255   1.411       .  A
C255        C256   1.406   1_554  A
C255        N262   1.429   1_554  S
C256        C257   1.407   1_556  A
C256        H261   1.083       .  S
C257        C258   1.415       .  A
C258        N259   1.428       .  S
N259        O263   1.260       .  A
N259        O264   1.262       .  A
N262        O266   1.261       .  A
N262        O265   1.262       .  A
C267        C268   1.406       .  A
C267        C272   1.406       .  A
C267        H274   1.080       .  S
C268        C269   1.416       .  A
C269        C270   1.403       .  A
C269        N276   1.433   1_554  S
C270        C271   1.399       .  A
C270        H275   1.084       .  S
C271        C272   1.409       .  A
C272        N273   1.431       .  S
N273        O277   1.262       .  A
N273        O278   1.262       .  A
N276        O280   1.262       .  A
N276        O279   1.261       .  A
C281        C286   1.398       .  A
C281       C2074   1.399       .  A
C281        H288   1.083       .  S
C282        C283   1.419       .  A
C282       C2073   1.400       .  A
C283        C284   1.400       .  A
C283        N290   1.441       .  S
C284        C285   1.399       .  A
C284        H289   1.084       .  S
C285       C2078   1.418       .  A
C286       C2077   1.419       .  A
C286        N287   1.438       .  S
N287        O291   1.261       .  A
N287        O292   1.262       .  A
N290        O294   1.263       .  A
N290        O293   1.261       .  A
C295        C296   1.402       .  A
C295        C300   1.400       .  A
C295        H302   1.084       .  S
C296        C297   1.421       .  A
C297        C298   1.402       .  A
C297        N304   1.440       .  S
C298        C299   1.398       .  A
C298        H303   1.084       .  S
C299        C300   1.412       .  A
C300        N301   1.430       .  S
N301        O305   1.262       .  A
N301        O306   1.262       .  A
N304        O308   1.263       .  A
N304        O307   1.258       .  A
C309        C310   1.396       .  A
C309        C314   1.399       .  A
C309        H316   1.084       .  S
C310        C311   1.408       .  A
C311        C312   1.401       .  A
C311        N318   1.429       .  S
C312        C313   1.406       .  A
C312        H317   1.082       .  S
C313        C314   1.423       .  A
C314        N315   1.441       .  S
N315        O319   1.263       .  A
N315        O320   1.258       .  A
N318        O322   1.262       .  A
N318        O321   1.262       .  A
C323        C324   1.404       .  A
C323        C328   1.404       .  A
C323        H330   1.084       .  S
C324        C325   1.413       .  A
C325        C326   1.405       .  A
C325        N332   1.430       .  S
C326        C327   1.407       .  A
C326        H331   1.084       .  S
C327        C328   1.415       .  A
C328       N1225   1.430   1_545  S
N329       C1224   1.428       .  S
N329        O333   1.261       .  A
N329        O334   1.261       .  A
N332        O336   1.262       .  A
N332        O335   1.262       .  A
C337        C338   1.400       .  A
C337        C342   1.399       .  A
C337        H344   1.084       .  S
C338        C339   1.410       .  A
C339        C340   1.402       .  A
C339        N346   1.429       .  S
C340        C341   1.405       .  A
C340        H345   1.081       .  S
C341        C342   1.415       .  A
C342        N343   1.430       .  S
N343        O347   1.261       .  A
N343        O348   1.260       .  A
N346        O350   1.262       .  A
N346        O349   1.262       .  A
C351        C356   1.406       .  A
C351       C2144   1.402   1_455  A
C351        H358   1.083       .  S
C352        C353   1.420       .  A
C352       C2143   1.401       .  A
C353        C354   1.399       .  A
C353        N360   1.438       .  S
C354        C355   1.400       .  A
C354        H359   1.082       .  S
C355       C2148   1.422       .  A
C356       C2147   1.421   1_455  A
C356        N357   1.443       .  S
N357        O361   1.263       .  A
N357        O362   1.262       .  A
N360        O364   1.262       .  A
N360        O363   1.262       .  A
C365        C366   1.402       .  A
C365        C370   1.406       .  A
C365        H372   1.084       .  S
C366        C367   1.410       .  A
C367        C368   1.404       .  A
C367        N822   1.429       .  S
C368        C369   1.406       .  A
C368        H821   1.084       .  S
C369        C370   1.416       .  A
C370        N371   1.425       .  S
N371        O375   1.261   1_545  A
N371        O376   1.262       .  A
H373        C816   1.084       .  S
N374        C815   1.430   1_554  S
N374        O378   1.262       .  A
N374        O825   1.262       .  A
O377        N822   1.262       .  A
C379        C380   1.403       .  A
C379        C384   1.411       .  A
C379        H386   1.084       .  S
C380        C381   1.409       .  A
C381        C382   1.404       .  A
C381        N388   1.426       .  S
C382        C383   1.401       .  A
C382        H387   1.083       .  S
C383        C384   1.423       .  A
C384        N833   1.441       .  S
N385        C832   1.439       .  S
N385        O389   1.263       .  A
N385        O390   1.262       .  A
N388        O392   1.262       .  A
N388        O391   1.261       .  A
C393        C398   1.397       .  A
C393       C2186   1.396       .  A
C393        H400   1.081       .  S
C394        C395   1.414       .  A
C394       C2185   1.394       .  A
C395        C396   1.397       .  A
C395        N402   1.441       .  S
C396        C397   1.396       .  A
C396        H401   1.080       .  S
C397       C2190   1.414       .  A
C397       C1796   1.473       .  S
C398       C2189   1.413       .  A
C398       N1295   1.432   1_545  S
N399       C1294   1.432       .  S
N399        O403   1.258       .  A
N399        O404   1.262       .  A
N402        O406   1.262       .  A
N402        O405   1.262       .  A
C407        C408   1.399       .  A
C407        C412   1.399       .  A
C407       H1310   1.084       .  S
C408        C409   1.423   1_554  A
C409        C410   1.405   1_556  A
C409        N416   1.441       .  S
C410        C411   1.398       .  A
C410        H415   1.084   1_554  S
C411        C412   1.408       .  A
C412        N413   1.424       .  S
N413       O1313   1.262       .  A
N413        O418   1.261       .  A
H414       C1303   1.083   1_545  S
N416        O868   1.263       .  A
N416        O419   1.261       .  A
O417       N1309   1.262       .  A
O420        N864   1.263       .  A
C421        C870   1.404       .  A
C421        C874   1.397       .  A
C421        H428   1.084       .  S
C422        C423   1.413       .  A
C422        C869   1.405       .  A
C423        C424   1.402       .  A
C423        N430   1.426       .  S
C424        C425   1.401       .  A
C424        H429   1.084       .  S
C425        C426   1.408       .  A
C426        C869   1.400       .  A
C426        N875   1.429   1_554  S
N427        C874   1.428       .  S
N427        O431   1.262       .  A
N427        O432   1.262       .  A
N430       O1330   1.262       .  A
N430        O433   1.261       .  A
O434       N1326   1.260   1_545  A
C435        C440   1.412       .  A
C435       C2228   1.401       .  A
C435        H442   1.083       .  S
C436        C437   1.416       .  A
C436       C2227   1.400       .  A
C437        C438   1.401       .  A
C437        N444   1.437       .  S
C438        C439   1.401       .  A
C438        H443   1.080       .  S
C439       C2232   1.421       .  A
C440       C2231   1.423       .  A
C440        N441   1.445       .  S
N441        O445   1.262       .  A
N441        O446   1.263       .  A
N444        O448   1.262       .  A
N444        O447   1.262       .  A
C449        C450   1.419   1_655  A
C449       C2246   1.422       .  A
C449        C887   1.490       .  S
C450        C899   1.411       .  A
C450        C870   1.490       .  S
C451        C898   1.412   1_546  A
C451       C2244   1.416       .  A
C451        C831   1.500       .  S
C452       C2243   1.416       .  A
C452        C453   1.414       .  A
C452       C2637   1.475       .  S
C453        C902   1.413   1_546  A
C453        C817   1.505       .  S
C454       C2241   1.424       .  A
C454        C901   1.413       .  A
C454        C856   1.488       .  S
Fe455       O471   2.046       .  S
Fe455       O461   2.073       .  S
Fe455       O468   2.064       .  S
Fe455       O460   2.063       .  S
Fe455      O2258   1.972       .  S
Fe456       O459   2.054       .  S
Fe456       O463   2.075       .  S
Fe456       O467   2.052       .  S
Fe456       O472   2.077       .  S
Fe456       O466   1.974       .  S
Fe457      O2267   2.068       .  S
Fe457      O2254   2.063       .  S
Fe457       O469   2.055       .  S
Fe457       O458   2.074       .  S
Fe457      O2258   1.980       .  S
O458        C465   1.267       .  A
O459        C473   1.264       .  A
O460        C465   1.265       .  A
O461        C464   1.273       .  A
O462      Fe2249   2.064       .  S
O462        C474   1.272       .  A
O463       C2268   1.270   1_455  A
C464        C758   1.475       .  S
C464        O469   1.271       .  A
C465        C772   1.487       .  S
O466      Fe2247   1.967   1_455  S
O466      Fe2249   1.978       .  S
O467        C470   1.265       .  A
O468       C2262   1.272       .  A
C470        C842   1.462       .  S
C470       O2260   1.269   1_455  A
O471        C476   1.261       .  A
O472        C474   1.273       .  A
C473        C747   1.481       .  S
C473        O475   1.268       .  A
C474        C786   1.483       .  S
O475      Fe2249   2.072       .  S
C476        C800   1.481       .  S
C476       O2255   1.270       .  A
C477       C2270   1.421       .  A
C477        C482   1.423       .  A
C477        C803   1.494       .  S
C478       C2269   1.422   1_455  A
C478        C677   1.491       .  S
C479       C2272   1.420       .  A
C479        C705   1.498       .  S
C480       C2271   1.422       .  A
C480        C481   1.418       .  A
C480        C730   1.487       .  S
C481        C716   1.498       .  S
C482        C691   1.495       .  S
Fe483       O499   2.059       .  S
Fe483       O489   2.053       .  S
Fe483       O496   2.052       .  S
Fe483       O488   2.052       .  S
Fe483      O2286   1.976       .  S
Fe484       O487   2.081       .  S
Fe484       O491   2.040       .  S
Fe484       O495   2.088       .  S
Fe484       O500   2.048       .  S
Fe484       O494   1.969   1_455  S
Fe485      O2295   2.079       .  S
Fe485      O2282   2.103       .  S
Fe485       O497   2.108       .  S
Fe485       O486   2.064       .  S
Fe485      O2286   1.992       .  S
O486        C493   1.270       .  A
O487        C501   1.271       .  A
O488        C493   1.267       .  A
O489        C492   1.266       .  A
O490      Fe2277   2.111       .  S
O490        C502   1.279       .  A
O491       C2296   1.263       .  A
C492        C632   1.496       .  S
C492        O497   1.275       .  A
C493        C646   1.468       .  S
O494      Fe2275   1.971       .  S
O494      Fe2277   1.984   1_655  S
O495        C498   1.271   1_455  A
O496       C2290   1.263       .  A
C498        C884   1.479       .  S
C498       O2288   1.264       .  A
O499        C504   1.269       .  A
O500        C502   1.267       .  A
C501        C621   1.485       .  S
C501        O503   1.271       .  A
C502        C660   1.500       .  S
O503      Fe2277   2.079       .  S
C504        C733   1.470       .  S
C504       O2283   1.262       .  A
C505        C506   1.429       .  A
C505        C510   1.421       .  A
C505        C604   1.495       .  S
C506       C1403   1.419   1_545  A
C506        C789   1.498       .  S
C507       C1402   1.420       .  A
C507        C508   1.420       .  A
C507        C663   1.501       .  S
C508        C509   1.418       .  A
C508        C593   1.497       .  S
C509       C1406   1.412       .  A
C509        C649   1.481       .  S
C510       C1405   1.414   1_545  A
C510        C775   1.503       .  S
Fe511       O527   2.062       .  S
Fe511       O517   2.071       .  S
Fe511       O524   2.072       .  S
Fe511       O516   2.054       .  S
Fe511       O522   1.968       .  S
Fe512       O515   2.064       .  S
Fe512       O519   2.053       .  S
Fe512       O523   2.075       .  S
Fe512       O528   2.061       .  S
Fe512       O522   1.968       .  S
Fe513       O531   2.076       .  S
Fe513       O518   2.082       .  S
Fe513       O525   2.078       .  S
Fe513       O514   2.074       .  S
Fe513       O522   1.985       .  S
O514        C521   1.268       .  A
O515        C529   1.266       .  A
O516        C521   1.265       .  A
O517        C520   1.272       .  A
O518        C530   1.275       .  A
O519        C532   1.268       .  A
C520        C719   1.473       .  S
C520        O525   1.273       .  A
C521        C859   1.475       .  S
O523        C526   1.269       .  A
O524        C526   1.270       .  A
C526        C590   1.482       .  S
O527        C532   1.266       .  A
O528        C530   1.272       .  A
C529        C702   1.489       .  S
C529        O531   1.266       .  A
C530        C873   1.477       .  S
C532        C579   1.470       .  S
C533        C534   1.421       .  A
C533        C538   1.419       .  A
C533        C562   1.501       .  S
C534        C535   1.419       .  A
C534        C761   1.490       .  S
C535        C536   1.428       .  A
C535        C635   1.515       .  S
C536        C537   1.426       .  A
C536        C576   1.485       .  S
C537        C538   1.416       .  A
C537        C618   1.507       .  S
C538        C744   1.490       .  S
Fe539       O555   2.074       .  S
Fe539       O545   2.065       .  S
Fe539       O552   2.077       .  S
Fe539       O544   2.080       .  S
Fe539       O550   1.973       .  S
Fe540       O543   2.076       .  S
Fe540       O547   2.081       .  S
Fe540       O551   2.068       .  S
Fe540       O556   2.074       .  S
Fe540       O550   1.970       .  S
Fe541       O559   2.080       .  S
Fe541       O546   2.081       .  S
Fe541       O553   2.080       .  S
Fe541       O542   2.086       .  S
Fe541       O550   1.984       .  S
O542        C549   1.275       .  A
O543        C557   1.275       .  A
O544        C549   1.275       .  A
O545        C548   1.266       .  A
O546        C558   1.269       .  A
O547        C560   1.270       .  A
C548        C688   1.492       .  S
C548        O553   1.268       .  A
C549        C814   1.488       .  S
O551        C554   1.271       .  A
O552        C554   1.270       .  A
C554        C607   1.477       .  S
O555        C560   1.269       .  A
O556        C558   1.267       .  A
C557        C674   1.477       .  S
C557        O559   1.275       .  A
C558        C828   1.488       .  S
C560        C565   1.481       .  S
C561        C562   1.409       .  A
C561        C566   1.405       .  A
C561        H568   1.084       .  S
C562        C563   1.413       .  A
C563        C564   1.404       .  A
C563        N570   1.430       .  S
C564        C565   1.404       .  A
C564        H569   1.084       .  S
C565        C566   1.407       .  A
C566        N567   1.429       .  S
N567        O571   1.262       .  A
N567        O572   1.262       .  A
N570        O574   1.262       .  A
N570        O573   1.260       .  A
C575        C576   1.401       .  A
C575        C580   1.398       .  A
C575        H582   1.084       .  S
C576        C577   1.424       .  A
C577        C578   1.403       .  A
C577        N584   1.447       .  S
C578        C579   1.397       .  A
C578        H583   1.084       .  S
C579        C580   1.413       .  A
C580        N581   1.435       .  S
N581        O585   1.262       .  A
N581        O586   1.262       .  A
N584        O588   1.263       .  A
N584        O587   1.259       .  A
C589        C590   1.405       .  A
C589        C594   1.404       .  A
C589        H596   1.084       .  S
C590        C591   1.411       .  A
C591        C592   1.405       .  A
C591        N598   1.436       .  S
C592        C593   1.405       .  A
C592        H597   1.084       .  S
C593        C594   1.411       .  A
C594        N595   1.429       .  S
N595        O599   1.262       .  A
N595        O600   1.260       .  A
N598        O602   1.263       .  A
N598        O601   1.262       .  A
C603        C604   1.403       .  A
C603        C608   1.402       .  A
C603        H610   1.084       .  S
C604        C605   1.422       .  A
C605        C606   1.409       .  A
C605        N612   1.443       .  S
C606        C607   1.403       .  A
C606        H611   1.083       .  S
C607        C608   1.407       .  A
C608        N609   1.437       .  S
N609        O613   1.262       .  A
N609        O614   1.263       .  A
N612        O616   1.263       .  A
N612        O615   1.259       .  A
C617        C618   1.408       .  A
C617        C622   1.410       .  A
C617        H624   1.084       .  S
C618        C619   1.417       .  A
C619        C620   1.405       .  A
C619        N626   1.426       .  S
C620        C621   1.400       .  A
C620        H625   1.084       .  S
C621        C622   1.413       .  A
C622        N623   1.436       .  S
N623        O627   1.262       .  A
N623        O628   1.262       .  A
N626        O630   1.260       .  A
N626        O629   1.261       .  A
C631        C632   1.405       .  A
C631        C636   1.406       .  A
C631        H638   1.084       .  S
C632        C633   1.411       .  A
C633        C634   1.412       .  A
C633        N640   1.428       .  S
C634        C635   1.412       .  A
C634        H639   1.084       .  S
C635        C636   1.418       .  A
C636        N637   1.430       .  S
N637        O641   1.262       .  A
N637        O642   1.259       .  A
N640        O644   1.262       .  A
N640        O643   1.262       .  A
C645        C646   1.398       .  A
C645        C650   1.404       .  A
C645        H652   1.084       .  S
C646        C647   1.406       .  A
C647        C648   1.395       .  A
C647        N654   1.430       .  S
C648        C649   1.402       .  A
C648       H1549   1.083       .  S
C649        C650   1.423       .  A
C650        N651   1.448       .  S
N651        O655   1.261       .  A
N651        O656   1.263       .  A
H653       C1544   1.083       .  S
N654       O1554   1.262       .  A
N654        O657   1.262       .  A
O658       N1550   1.262       .  A
C659        C660   1.407       .  A
C659        C664   1.410       .  A
C659        H666   1.083       .  S
C660        C661   1.420       .  A
C661        C662   1.401       .  A
C661        N668   1.431       .  S
C662        C663   1.401       .  A
C662        H667   1.083       .  S
C663        C664   1.416       .  A
C664        N665   1.433       .  S
N665        O669   1.262       .  A
N665        O670   1.261       .  A
N668        O672   1.262       .  A
N668        O671   1.262       .  A
C673        C674   1.402       .  A
C673        C678   1.402       .  A
C674        C675   1.408       .  A
C675        C676   1.404       .  A
C675        N682   1.428       .  S
C676        C677   1.404       .  A
C676        H681   1.081       .  S
C677        C678   1.412       .  A
N679        O683   1.260       .  A
N679        O684   1.261       .  A
N682        O686   1.261       .  A
N682        O685   1.262       .  A
C687        C688   1.409       .  A
C687        C692   1.406       .  A
C687        H694   1.084       .  S
C688        C689   1.417       .  A
C689        C690   1.405   1_556  A
C690        C691   1.403   1_554  A
C691        C692   1.407       .  A
C692        N693   1.428       .  S
N693        O697   1.262       .  A
N693        O698   1.262       .  A
N696        O700   1.262       .  A
N696        O699   1.262       .  A
C701        C702   1.406       .  A
C701        C706   1.404       .  A
C701        H708   1.084       .  S
C702        C703   1.414       .  A
C703        C704   1.406       .  A
C703        N710   1.432       .  S
C704        C705   1.405       .  A
C704        H709   1.084       .  S
C705        C706   1.411       .  A
C706        N707   1.428       .  S
N707        O711   1.261       .  A
N707        O712   1.262       .  A
N710        O714   1.262       .  A
N710        O713   1.262       .  A
C715        C716   1.406       .  A
C715        C720   1.403       .  A
C715        H722   1.079       .  S
C716        C717   1.417       .  A
C717        C718   1.404       .  A
C717        N724   1.434       .  S
C718        C719   1.399       .  A
C718        H723   1.084       .  S
C719        C720   1.406       .  A
C720        N721   1.430       .  S
N721        O725   1.262       .  A
N721        O726   1.262       .  A
N724        O728   1.262       .  A
N724        O727   1.261       .  A
C729       C2522   1.400       .  A
C729        C734   1.399       .  A
C729        H736   1.082       .  S
C730       C2521   1.400       .  A
C730        C731   1.419       .  A
C731        C732   1.398       .  A
C731        N738   1.440       .  S
C732        C733   1.398       .  A
C732        H737   1.084       .  S
C733       C2526   1.419       .  A
C734       C2525   1.418       .  A
C734        N735   1.442       .  S
N735        O739   1.261       .  A
N735        O740   1.262       .  A
N738        O742   1.263       .  A
N738        O741   1.261       .  A
C743        C744   1.403       .  A
C743        C748   1.401       .  A
C743        H750   1.084       .  S
C744        C745   1.422       .  A
C745        C746   1.403       .  A
C745        N752   1.440       .  S
C746        C747   1.399       .  A
C746        H751   1.084       .  S
C747        C748   1.411       .  A
C748        N749   1.429       .  S
N749        O753   1.262       .  A
N749        O754   1.262       .  A
N752        O756   1.263       .  A
N752        O755   1.258       .  A
C757        C758   1.396       .  A
C757        C762   1.399       .  A
C757        H764   1.083       .  S
C758        C759   1.408       .  A
C759        C760   1.403       .  A
C759        N766   1.430       .  S
C760        C761   1.406       .  A
C760        H765   1.083       .  S
C761        C762   1.424       .  A
C762        N763   1.443       .  S
N763        O767   1.263       .  A
N763        O768   1.258       .  A
N766        O770   1.262       .  A
N766        O769   1.262       .  A
C771        C772   1.404       .  A
C771        C776   1.404       .  A
C771        H778   1.084       .  S
C772        C773   1.412       .  A
C773        C774   1.405       .  A
C773        N780   1.430       .  S
C774        C775   1.406       .  A
C774        H779   1.084       .  S
C775        C776   1.413       .  A
C776       N1673   1.429   1_545  S
N777       C1672   1.429       .  S
N777        O781   1.262       .  A
N777        O782   1.260       .  A
N780        O784   1.262       .  A
N780        O783   1.262       .  A
C785        C786   1.402       .  A
C785        C790   1.400       .  A
C785        H792   1.084       .  S
C786        C787   1.411       .  A
C787        C788   1.403       .  A
C787        N794   1.429       .  S
C788        C789   1.405       .  A
C788        H793   1.081       .  S
C789        C790   1.416       .  A
C790        N791   1.432       .  S
N791        O795   1.262       .  A
N791        O796   1.260       .  A
N794        O798   1.262       .  A
N794        O797   1.262       .  A
C799       C2592   1.400   1_455  A
C799        C804   1.407       .  A
C799        H806   1.083       .  S
C800       C2591   1.400       .  A
C800        C801   1.421       .  A
C801        C802   1.400       .  A
C801        N808   1.438       .  S
C802        C803   1.400       .  A
C802        H807   1.082       .  S
C803       C2596   1.422       .  A
C804       C2595   1.423   1_455  A
C804        N805   1.443       .  S
N805        O809   1.263       .  A
N805        O810   1.261       .  A
N808        O812   1.262       .  A
N808        O811   1.262       .  A
C813        C814   1.401       .  A
C813        C818   1.405       .  A
C813        H820   1.084       .  S
C814        C815   1.412       .  A
C815        C816   1.406   1_556  A
C816        C817   1.406   1_554  A
C817        C818   1.418       .  A
C818        N819   1.426       .  S
N819        O823   1.260   1_545  A
N819        O824   1.262       .  A
N822        O826   1.262       .  A
C827        C828   1.403       .  A
C827        C832   1.410   1_556  A
C827        H834   1.084   1_556  S
C828        C829   1.409       .  A
C829        C830   1.403       .  A
C829        N836   1.425       .  S
C830        C831   1.403       .  A
C830        H835   1.080       .  S
C831        C832   1.422   1_556  A
N833        O837   1.263       .  A
N833        O838   1.262       .  A
N836        O840   1.261       .  A
N836        O839   1.261       .  A
C841       C2634   1.394       .  A
C841        C846   1.394       .  A
C841        H848   1.084       .  S
C842       C2633   1.399       .  A
C842        C843   1.416       .  A
C843        C844   1.396       .  A
C843        N850   1.439       .  S
C844        C845   1.397       .  A
C844        H849   1.082       .  S
C845       C2638   1.414       .  A
C845       C2244   1.477       .  S
C846       C2637   1.413       .  A
C846       N1743   1.432   1_545  S
N847       C1742   1.434       .  S
N847        O851   1.259       .  A
N847        O852   1.262       .  A
N850        O854   1.262       .  A
N850        O853   1.262       .  A
C855        C856   1.400       .  A
C855        C860   1.398       .  A
C855       H1758   1.080       .  S
C856        C857   1.423       .  A
C857        C858   1.406       .  A
C857        N864   1.442       .  S
C858        C859   1.399       .  A
C858        H863   1.084       .  S
C859        C860   1.406       .  A
C860        N861   1.425       .  S
N861       O1761   1.262       .  A
N861        O866   1.261       .  A
H862       C1751   1.083   1_545  S
N864        O867   1.261       .  A
O865       N1757   1.262       .  A
C869        H876   1.084   1_554  S
C870        C871   1.413       .  A
C871        C872   1.403       .  A
C871        N878   1.427       .  S
C872        C873   1.403       .  A
C872        H877   1.084       .  S
C873        C874   1.407       .  A
N875        O879   1.262       .  A
N875        O880   1.262       .  A
N878       O1778   1.260       .  A
N878        O881   1.262       .  A
O882       N1774   1.259       .  A
C883       C2676   1.402       .  A
C883        C888   1.407       .  A
C883        H890   1.083       .  S
C884       C2675   1.403       .  A
C884        C885   1.420       .  A
C885        C886   1.405       .  A
C885        N892   1.443       .  S
C886        C887   1.396       .  A
C886        H891   1.080       .  S
C887       C2680   1.411       .  A
C888       C2679   1.415       .  A
C888        N889   1.437       .  S
N889        O893   1.262       .  A
N889        O894   1.262       .  A
N892        O896   1.262       .  A
N892        O895   1.261       .  A
C897        C898   1.419   1_655  A
C897       C2694   1.421       .  A
C897       C1335   1.494       .  S
C898       C1318   1.488       .  S
C899       C2692   1.418       .  A
C899       C1279   1.497       .  S
C900       C2691   1.418       .  A
C900        C901   1.415       .  A
C900       C3085   1.478       .  S
C901       C1265   1.505       .  S
C902       C2689   1.424       .  A
C902       C1304   1.486       .  S
Fe903       O919   2.049       .  S
Fe903       O909   2.071       .  S
Fe903       O916   2.065       .  S
Fe903       O908   2.062       .  S
Fe903      O2706   1.971       .  S
Fe904       O907   2.047       .  S
Fe904       O911   2.068       .  S
Fe904       O915   2.046       .  S
Fe904       O920   2.073       .  S
Fe904       O914   1.974       .  S
Fe905      O2715   2.074       .  S
Fe905      O2702   2.066       .  S
Fe905       O917   2.059       .  S
Fe905       O906   2.076       .  S
Fe905      O2706   1.982       .  S
O906        C913   1.267       .  A
O907        C921   1.263       .  A
O908        C913   1.265       .  A
O909        C912   1.273       .  A
O910      Fe2697   2.066   1_455  S
O910        C922   1.272       .  A
O911       C2716   1.269   1_455  A
C912       C1206   1.474       .  S
C912        O917   1.272       .  A
C913       C1220   1.488       .  S
O914      Fe2695   1.970   1_455  S
O914      Fe2697   1.978   1_455  S
O915        C918   1.263       .  A
O916       C2710   1.271       .  A
C918       C1290   1.464       .  S
C918       O2708   1.270   1_455  A
O919        C924   1.262       .  A
O920        C922   1.272       .  A
C921       C1195   1.478       .  S
C921        O923   1.267       .  A
C922       C1234   1.482       .  S
O923      Fe2697   2.069   1_455  S
C924       C1248   1.481       .  S
C924       O2703   1.270       .  A
C925       C2718   1.420       .  A
C925        C930   1.423       .  A
C925       C1251   1.495       .  S
C926       C2717   1.420   1_455  A
C926       C1375   1.413       .  A
C926       C1125   1.491       .  S
C927       C1374   1.411   1_554  A
C927       C2720   1.425       .  A
C927       C1153   1.498       .  S
C928       C2719   1.422       .  A
C928        C929   1.418       .  A
C928       C1178   1.490       .  S
C929       C1378   1.411   1_554  A
C929       C1164   1.496       .  S
C930       C1377   1.412       .  A
C930       C1139   1.492       .  S
Fe931       O947   2.060       .  S
Fe931       O937   2.050       .  S
Fe931       O944   2.054       .  S
Fe931       O936   2.054       .  S
Fe931      O2734   1.975       .  S
Fe932       O935   2.085       .  S
Fe932       O939   2.040       .  S
Fe932       O943   2.092       .  S
Fe932       O948   2.050       .  S
Fe932       O942   1.966   1_455  S
Fe933      O2743   2.088       .  S
Fe933      O2730   2.102       .  S
Fe933       O945   2.107       .  S
Fe933       O934   2.071       .  S
Fe933      O2734   1.991       .  S
O934        C941   1.272       .  A
O935        C949   1.271       .  A
O936        C941   1.269       .  A
O937        C940   1.264       .  A
O938      Fe2725   2.110       .  S
O938        C950   1.279       .  A
O939       C2744   1.264       .  A
C940       C1080   1.494       .  S
C940        O945   1.275       .  A
C941       C1094   1.472       .  S
O942      Fe2723   1.969       .  S
O942      Fe2725   1.983   1_655  S
O943        C946   1.271   1_455  A
O944       C2738   1.263       .  A
C946       C1332   1.483       .  S
C946       O2736   1.264       .  A
O947        C952   1.269       .  A
O948        C950   1.268       .  A
C949       C1069   1.486       .  S
C949        O951   1.270       .  A
C950       C1108   1.500       .  S
O951      Fe2725   2.077       .  S
C952       C1181   1.475       .  S
C952       O2731   1.263       .  A
C953        C954   1.428       .  A
C953        C958   1.420       .  A
C953       C1052   1.495       .  S
C954       C1237   1.498       .  S
C955        C956   1.419       .  A
C955       C1111   1.502       .  S
C956        C957   1.421       .  A
C956       C1041   1.499       .  S
C957       C1097   1.484       .  S
C958       C1223   1.501       .  S
Fe959       O975   2.055       .  S
Fe959       O965   2.072       .  S
Fe959       O972   2.070       .  S
Fe959       O964   2.047       .  S
Fe959       O970   1.972       .  S
Fe960       O963   2.060       .  S
Fe960       O967   2.045       .  S
Fe960       O971   2.076       .  S
Fe960       O976   2.062       .  S
Fe960       O970   1.971       .  S
Fe961       O979   2.082       .  S
Fe961       O966   2.075       .  S
Fe961       O973   2.070       .  S
Fe961       O962   2.078       .  S
Fe961       O970   1.988       .  S
O962        C969   1.270       .  A
O963        C977   1.264       .  A
O964        C969   1.263       .  A
O965        C968   1.272       .  A
O966        C978   1.273       .  A
O967        C980   1.266       .  A
C968       C1167   1.470       .  S
C968        O973   1.271       .  A
C969       C1307   1.475       .  S
O971        C974   1.269       .  A
O972        C974   1.269       .  A
C974       C1038   1.481       .  S
O975        C980   1.265       .  A
O976        C978   1.272       .  A
C977       C1150   1.490       .  S
C977        O979   1.268       .  A
C978       C1321   1.480       .  S
C980       C1027   1.461       .  S
C981        C982   1.419       .  A
C981        C986   1.420       .  A
C981       C1010   1.497       .  S
C982        C983   1.414       .  A
C982       C1209   1.490       .  S
C983        C984   1.425       .  A
C983       C1083   1.511       .  S
C984        C985   1.423       .  A
C984       C1024   1.477       .  S
C985        C986   1.414       .  A
C985       C1066   1.510       .  S
C986       C1192   1.486       .  S
Fe987      O1003   2.070       .  S
Fe987       O993   2.059       .  S
Fe987      O1000   2.074       .  S
Fe987       O992   2.080       .  S
Fe987       O998   1.974       .  S
Fe988       O991   2.078       .  S
Fe988       O995   2.073       .  S
Fe988       O999   2.070       .  S
Fe988      O1004   2.072       .  S
Fe988       O998   1.970       .  S
Fe989      O1007   2.077       .  S
Fe989       O994   2.081       .  S
Fe989      O1001   2.078       .  S
Fe989       O990   2.081       .  S
Fe989       O998   1.983       .  S
O990        C997   1.273       .  A
O991       C1005   1.275       .  A
O992        C997   1.276       .  A
O993        C996   1.264       .  A
O994       C1006   1.269       .  A
O995       C1008   1.269       .  A
C996       C1136   1.487       .  S
C996       O1001   1.268       .  A
C997       C1262   1.492       .  S
O999       C1002   1.271       .  A
O1000      C1002   1.269       .  A
C1002      C1055   1.476       .  S
O1003      C1008   1.269       .  A
O1004      C1006   1.266       .  A
C1005      C1122   1.475       .  S
C1005      O1007   1.274       .  A
C1006      C1276   1.489       .  S
C1008      C1013   1.477       .  S
C1009      C1010   1.408       .  A
C1009      C1014   1.403       .  A
C1009      H1016   1.084       .  S
C1010      C1011   1.412       .  A
C1011      C1012   1.402       .  A
C1011      N1018   1.430       .  S
C1012      C1013   1.404       .  A
C1012      H1017   1.084       .  S
C1013      C1014   1.407       .  A
C1014      N1015   1.430       .  S
N1015      O1019   1.262       .  A
N1015      O1020   1.262       .  A
N1018      O1022   1.262       .  A
N1018      O1021   1.260       .  A
C1023      C1024   1.400       .  A
C1023      C1028   1.395       .  A
C1023      H1030   1.084       .  S
C1024      C1025   1.423       .  A
C1025      C1026   1.401       .  A
C1025      N1032   1.447       .  S
C1026      C1027   1.396       .  A
C1026      H1031   1.084       .  S
C1027      C1028   1.410       .  A
C1028      N1029   1.434       .  S
N1029      O1033   1.262       .  A
N1029      O1034   1.262       .  A
N1032      O1036   1.263       .  A
N1032      O1035   1.259       .  A
C1037      C1038   1.404       .  A
C1037      C1042   1.405       .  A
C1037      H1044   1.084       .  S
C1038      C1039   1.411       .  A
C1039      C1040   1.405       .  A
C1039      N1046   1.437       .  S
C1040      C1041   1.405       .  A
C1040      H1045   1.084       .  S
C1041      C1042   1.412       .  A
C1042      N1043   1.430       .  S
N1043      O1047   1.262       .  A
N1043      O1048   1.260       .  A
N1046      O1050   1.263       .  A
N1046      O1049   1.263       .  A
C1051      C1052   1.404       .  A
C1051      C1056   1.401       .  A
C1051      H1058   1.084       .  S
C1052      C1053   1.422       .  A
C1053      C1054   1.410       .  A
C1053      N1060   1.443       .  S
C1054      C1055   1.403       .  A
C1054      H1059   1.084       .  S
C1055      C1056   1.405       .  A
C1056      N1057   1.435       .  S
N1057      O1061   1.262       .  A
N1057      O1062   1.263       .  A
N1060      O1064   1.263       .  A
N1060      O1063   1.260       .  A
C1065      C1066   1.409       .  A
C1065      C1070   1.412       .  A
C1065      H1072   1.084       .  S
C1066      C1067   1.417       .  A
C1067      C1068   1.405       .  A
C1067      N1074   1.425       .  S
C1068      C1069   1.400       .  A
C1068      H1073   1.085       .  S
C1069      C1070   1.413       .  A
C1070      N1071   1.437       .  S
N1071      O1075   1.262       .  A
N1071      O1076   1.263       .  A
N1074      O1078   1.260       .  A
N1074      O1077   1.262       .  A
C1079      C1080   1.405       .  A
C1079      C1084   1.405       .  A
C1079      H1086   1.084       .  S
C1080      C1081   1.410       .  A
C1081      C1082   1.410       .  A
C1081      N1088   1.428       .  S
C1082      C1083   1.411       .  A
C1082      H1087   1.084       .  S
C1083      C1084   1.416       .  A
C1084      N1085   1.429       .  S
N1085      O1089   1.262       .  A
N1085      O1090   1.259       .  A
N1088      O1092   1.262       .  A
N1088      O1091   1.262       .  A
C1093      C1094   1.399       .  A
C1093      C1098   1.405       .  A
C1093      H1100   1.083       .  S
C1094      C1095   1.408       .  A
C1095      C1096   1.396       .  A
C1095      N1102   1.429       .  S
C1096      C1097   1.402       .  A
C1097      C1098   1.424       .  A
C1098      N1099   1.447       .  S
N1099      O1103   1.261       .  A
N1099      O1104   1.263       .  A
N1102      O1105   1.262       .  A
C1107      C1108   1.407       .  A
C1107      C1112   1.410       .  A
C1107      H1114   1.083       .  S
C1108      C1109   1.418       .  A
C1109      C1110   1.400       .  A
C1109      N1116   1.431       .  S
C1110      C1111   1.402       .  A
C1110      H1115   1.082       .  S
C1111      C1112   1.418       .  A
C1112      N1113   1.435       .  S
N1113      O1117   1.262       .  A
N1113      O1118   1.261       .  A
N1116      O1120   1.262       .  A
N1116      O1119   1.262       .  A
C1121      C1122   1.400       .  A
C1121      C1126   1.401       .  A
C1121      H1576   1.084       .  S
C1122      C1123   1.408       .  A
C1123      C1124   1.404       .  A
C1123      N1130   1.428       .  S
C1124      C1125   1.404       .  A
C1124      H1129   1.081       .  S
C1125      C1126   1.413       .  A
C1126      N1575   1.431       .  S
N1127      C1574   1.435   1_554  S
N1127      O1131   1.260       .  A
N1127      O1132   1.261       .  A
H1128      C1569   1.084       .  S
N1130      O1134   1.261       .  A
N1130      O1133   1.262       .  A
C1135      C1136   1.409       .  A
C1135      C1140   1.407       .  A
C1135      H1142   1.084       .  S
C1136      C1137   1.414       .  A
C1137      C1138   1.402       .  A
C1137      N1592   1.433       .  S
C1138      C1139   1.403       .  A
C1138      H1591   1.084       .  S
C1139      C1140   1.408       .  A
C1140      N1141   1.430       .  S
N1141      O1145   1.262       .  A
N1141      O1146   1.262       .  A
H1143      C1586   1.083   1_554  S
N1144      C1585   1.432   1_554  S
N1144      O1148   1.262       .  A
N1144      O1147   1.262       .  A
C1149      C1150   1.408       .  A
C1149      C1154   1.406       .  A
C1149      H1156   1.084       .  S
C1150      C1151   1.411       .  A
C1151      C1152   1.403   1_554  A
C1151      N1158   1.429   1_554  S
C1152      C1153   1.405   1_556  A
C1152      H1157   1.084       .  S
C1153      C1154   1.412       .  A
C1154      N1155   1.429       .  S
N1155      O1159   1.261       .  A
N1155      O1160   1.262       .  A
N1158      O1162   1.261       .  A
N1158      O1161   1.262       .  A
C1163      C1164   1.406       .  A
C1163      C1168   1.402       .  A
C1163      H1170   1.080       .  S
C1164      C1165   1.417       .  A
C1165      C1166   1.403       .  A
C1165      N1172   1.435   1_554  S
C1166      C1167   1.399       .  A
C1166      H1171   1.084       .  S
C1167      C1168   1.405       .  A
C1168      N1169   1.429       .  S
N1169      O1173   1.262       .  A
N1169      O1174   1.262       .  A
N1172      O1176   1.262       .  A
N1172      O1175   1.261       .  A
C1177      C2970   1.401       .  A
C1177      C1182   1.399       .  A
C1177      H1184   1.081       .  S
C1178      C2969   1.401       .  A
C1178      C1179   1.420       .  A
C1179      C1180   1.399       .  A
C1179      N1186   1.440       .  S
C1180      C1181   1.398       .  A
C1180      H1185   1.084       .  S
C1181      C2974   1.419       .  A
C1182      C2973   1.417       .  A
C1182      N1183   1.441       .  S
N1183      O1187   1.261       .  A
N1183      O1188   1.262       .  A
N1186      O1190   1.263       .  A
N1186      O1189   1.260       .  A
C1191      C1192   1.401       .  A
C1191      C1196   1.399       .  A
C1191      H1198   1.084       .  S
C1192      C1193   1.421       .  A
C1193      C1194   1.402       .  A
C1193      N1200   1.438       .  S
C1194      C1195   1.399       .  A
C1194      H1199   1.084       .  S
C1195      C1196   1.411       .  A
C1196      N1197   1.429       .  S
N1197      O1201   1.262       .  A
N1197      O1202   1.262       .  A
N1200      O1204   1.263       .  A
N1200      O1203   1.258       .  A
C1205      C1206   1.396       .  A
C1205      C1210   1.400       .  A
C1205      H1212   1.083       .  S
C1206      C1207   1.407       .  A
C1207      C1208   1.401       .  A
C1207      N1214   1.429       .  S
C1208      C1209   1.406       .  A
C1208      H1213   1.083       .  S
C1209      C1210   1.424       .  A
C1210      N1211   1.443       .  S
N1211      O1215   1.263       .  A
N1211      O1216   1.257       .  A
N1214      O1218   1.262       .  A
N1214      O1217   1.262       .  A
C1219      C1220   1.405       .  A
C1219      C1224   1.405       .  A
C1219      H1226   1.084       .  S
C1220      C1221   1.413       .  A
C1221      C1222   1.404       .  A
C1221      N1228   1.430       .  S
C1222      C1223   1.405       .  A
C1222      H1227   1.084       .  S
C1223      C1224   1.412       .  A
N1225      O1229   1.262   1_565  A
N1225      O1230   1.260       .  A
N1228      O1232   1.262       .  A
N1228      O1231   1.262       .  A
C1233      C1234   1.402       .  A
C1233      C1238   1.402       .  A
C1233      H1240   1.084       .  S
C1234      C1235   1.411       .  A
C1235      C1236   1.401       .  A
C1235      N1242   1.429       .  S
C1236      C1237   1.405       .  A
C1236      H1241   1.081       .  S
C1237      C1238   1.417       .  A
C1238      N1239   1.434       .  S
N1239      O1243   1.262       .  A
N1239      O1244   1.260       .  A
N1242      O1246   1.262       .  A
N1242      O1245   1.262       .  A
C1247      C3040   1.400   1_455  A
C1247      C1252   1.407       .  A
C1247      H1254   1.083       .  S
C1248      C3039   1.401       .  A
C1248      C1249   1.420       .  A
C1249      C1250   1.400       .  A
C1249      N1256   1.438       .  S
C1250      C1251   1.400       .  A
C1250      H1255   1.081       .  S
C1251      C3044   1.421       .  A
C1252      C3043   1.423   1_455  A
C1252      N1253   1.443       .  S
N1253      O1257   1.263       .  A
N1253      O1258   1.261       .  A
N1256      O1260   1.262       .  A
N1256      O1259   1.262       .  A
C1261      C1262   1.403       .  A
C1261      C1266   1.404       .  A
C1261      H1268   1.084       .  S
C1262      C1263   1.418       .  A
C1263      C1264   1.407       .  A
C1263      N1718   1.434       .  S
C1264      C1265   1.404       .  A
C1264      H1717   1.084       .  S
C1265      C1266   1.417       .  A
C1266      N1267   1.427       .  S
N1267      O1271   1.260       .  A
N1267      O1272   1.263       .  A
H1269      C1712   1.084       .  S
N1270      C1711   1.432   1_554  S
N1270      O1274   1.262       .  A
N1270      O1721   1.262       .  A
O1273      N1718   1.262       .  A
C1275      C1276   1.403       .  A
C1275      C1280   1.410       .  A
C1275      H1282   1.084       .  S
C1276      C1277   1.411       .  A
C1277      C1278   1.404       .  A
C1277      N1284   1.427       .  S
C1278      C1279   1.402       .  A
C1278      H1283   1.082       .  S
C1279      C1280   1.423       .  A
C1280      N1729   1.442       .  S
N1281      C1728   1.436       .  S
N1281      O1285   1.260       .  A
N1281      O1286   1.262       .  A
N1284      O1288   1.261       .  A
N1284      O1287   1.262       .  A
C1289      C3082   1.395       .  A
C1289      C1294   1.395       .  A
C1289      H1296   1.084       .  S
C1290      C3081   1.396       .  A
C1290      C1291   1.419       .  A
C1291      C1292   1.399       .  A
C1291      N1298   1.442       .  S
C1292      C1293   1.399       .  A
C1292      H1297   1.081       .  S
C1293      C3086   1.416       .  A
C1293      C2692   1.482       .  S
C1294      C3085   1.413       .  A
N1295      O1299   1.258       .  A
N1295      O1300   1.262       .  A
N1298      O1302   1.262       .  A
N1298      O1301   1.263       .  A
C1303      C1304   1.399       .  A
C1303      C1308   1.399       .  A
C1304      C1305   1.423   1_554  A
C1305      C1306   1.405   1_556  A
C1305      N1312   1.441       .  S
C1306      C1307   1.399       .  A
C1306      H1311   1.084   1_554  S
C1307      C1308   1.408       .  A
C1308      N1309   1.425       .  S
N1309      O1314   1.261       .  A
N1312      O1764   1.263       .  A
N1312      O1315   1.261       .  A
O1316      N1760   1.263       .  A
C1317      C1766   1.406       .  A
C1317      C1770   1.400       .  A
C1317      H1324   1.084       .  S
C1318      C1765   1.403       .  A
C1318      C1319   1.412       .  A
C1319      C1320   1.403       .  A
C1319      N1326   1.431       .  S
C1320      C1321   1.405       .  A
C1320      H1325   1.084       .  S
C1321      C1322   1.411       .  A
C1322      C1765   1.397       .  A
C1322      N1771   1.431   1_554  S
N1323      C1770   1.428       .  S
N1323      O1327   1.262       .  A
N1323      O1328   1.262       .  A
N1326      O1329   1.262       .  A
C1331      C3124   1.403       .  A
C1331      C1336   1.411       .  A
C1331      H1338   1.064       .  S
C1332      C3123   1.402       .  A
C1332      C1333   1.417       .  A
C1333      C1334   1.404       .  A
C1333      N1340   1.439       .  S
C1334      C1335   1.396       .  A
C1334      H1339   1.081       .  S
C1335      C3128   1.417       .  A
C1336      C3127   1.416       .  A
C1336      N1337   1.441   1_565  S
N1337      O1341   1.262       .  A
N1337      O1342   1.262       .  A
N1340      O1344   1.261       .  A
N1340      O1343   1.261       .  A
C1345      C1346   1.421   1_655  A
C1345      C3142   1.423       .  A
C1345      C1783   1.492       .  S
C1346      C1766   1.492       .  S
C1347      C3140   1.416       .  A
C1347      C1727   1.497       .  S
C1348      C3139   1.417       .  A
C1348      C1349   1.415       .  A
C1348      C3533   1.479       .  S
C1349      C1713   1.508       .  S
C1350      C3137   1.423       .  A
C1350      C1752   1.485       .  S
Fe1351     O1367   2.040       .  S
Fe1351     O1357   2.068       .  S
Fe1351     O1364   2.066       .  S
Fe1351     O1356   2.059       .  S
Fe1351     O3154   1.972       .  S
Fe1352     O1355   2.053       .  S
Fe1352     O1359   2.083       .  S
Fe1352     O1363   2.041       .  S
Fe1352     O1368   2.083       .  S
Fe1352     O1362   1.977       .  S
Fe1353     O3163   2.074       .  S
Fe1353     O3150   2.063       .  S
Fe1353     O1365   2.058       .  S
Fe1353     O1354   2.079       .  S
Fe1353     O3154   1.984       .  S
O1354      C1361   1.268       .  A
O1355      C1369   1.264       .  A
O1356      C1361   1.266       .  A
O1357      C1360   1.271       .  A
O1358     Fe3145   2.061       .  S
O1358      C1370   1.270       .  A
O1359      C3164   1.272   1_455  A
C1360      C1654   1.473       .  S
C1360      O1365   1.270       .  A
C1361      C1668   1.488       .  S
O1362     Fe3143   1.972   1_455  S
O1362     Fe3145   1.982       .  S
O1363      C1366   1.263       .  A
O1364      C3158   1.271       .  A
C1366      C1738   1.457       .  S
C1366      O3156   1.271   1_455  A
O1367      C1372   1.260       .  A
O1368      C1370   1.274       .  A
C1369      C1643   1.481       .  S
C1369      O1371   1.268       .  A
C1370      C1682   1.482       .  S
O1371     Fe3145   2.069       .  S
C1372      C1696   1.480       .  S
C1372      O3151   1.271       .  A
C1373      C3166   1.419       .  A
C1373      C1378   1.422       .  A
C1373      C1699   1.495       .  S
C1374      C3165   1.417   1_455  A
C1374      C1573   1.491       .  S
C1375      C3168   1.420       .  A
C1375      C1601   1.500       .  S
C1376      C3167   1.422       .  A
C1376      C1377   1.418       .  A
C1376      C1626   1.487       .  S
C1377      C1612   1.500       .  S
C1378      C1587   1.493       .  S
Fe1379     O1395   2.059       .  S
Fe1379     O1385   2.052       .  S
Fe1379     O1392   2.053       .  S
Fe1379     O1384   2.056       .  S
Fe1379     O3182   1.976       .  S
Fe1380     O1383   2.083       .  S
Fe1380     O1387   2.045       .  S
Fe1380     O1391   2.081       .  S
Fe1380     O1396   2.045       .  S
Fe1380     O1390   1.974   1_455  S
Fe1381     O3191   2.085       .  S
Fe1381     O3178   2.102       .  S
Fe1381     O1393   2.106       .  S
Fe1381     O1382   2.070       .  S
Fe1381     O3182   1.991       .  S
O1382      C1389   1.272       .  A
O1383      C1397   1.273       .  A
O1384      C1389   1.269       .  A
O1385      C1388   1.265       .  A
O1386     Fe3173   2.103       .  S
O1386      C1398   1.274       .  A
O1387      C3192   1.263       .  A
C1388      C1528   1.494       .  S
C1388      O1393   1.275       .  A
C1389      C1542   1.472       .  S
O1390     Fe3171   1.974       .  S
O1390     Fe3173   1.993   1_655  S
O1391      C1394   1.271   1_455  A
O1392      C3186   1.263       .  A
C1394      C1780   1.476       .  S
C1394      O3184   1.262       .  A
O1395      C1400   1.269       .  A
O1396      C1398   1.264       .  A
C1397      C1517   1.487       .  S
C1397      O1399   1.273       .  A
C1398      C1556   1.497       .  S
O1399     Fe3173   2.083       .  S
C1400      C1629   1.472       .  S
C1400      O3179   1.263       .  A
C1401      C1402   1.429       .  A
C1401      C1406   1.419       .  A
C1401      C1500   1.492       .  S
C1402      C1685   1.499       .  S
C1403      C1404   1.421       .  A
C1403      C1559   1.502       .  S
C1404      C1405   1.420       .  A
C1404      C1489   1.499       .  S
C1405      C1545   1.484       .  S
C1406      C1671   1.504       .  S
Fe1407     O1423   2.064       .  S
Fe1407     O1413   2.073       .  S
Fe1407     O1420   2.073       .  S
Fe1407     O1412   2.053       .  S
Fe1407     O1418   1.969       .  S
Fe1408     O1411   2.061       .  S
Fe1408     O1415   2.050       .  S
Fe1408     O1419   2.078       .  S
Fe1408     O1424   2.057       .  S
Fe1408     O1418   1.965       .  S
Fe1409     O1427   2.077       .  S
Fe1409     O1414   2.088       .  S
Fe1409     O1421   2.081       .  S
Fe1409     O1410   2.076       .  S
Fe1409     O1418   1.986       .  S
O1410      C1417   1.269       .  A
O1411      C1425   1.266       .  A
O1412      C1417   1.265       .  A
O1413      C1416   1.272       .  A
O1414      C1426   1.276       .  A
O1415      C1428   1.267       .  A
C1416      C1615   1.475       .  S
C1416      O1421   1.273       .  A
C1417      C1755   1.476       .  S
O1419      C1422   1.269       .  A
O1420      C1422   1.270       .  A
C1422      C1486   1.483       .  S
O1423      C1428   1.266       .  A
O1424      C1426   1.272       .  A
C1425      C1598   1.488       .  S
C1425      O1427   1.267       .  A
C1426      C1769   1.477       .  S
C1428      C1475   1.468       .  S
C1429      C1430   1.420       .  A
C1429      C1434   1.421       .  A
C1429      C1458   1.503       .  S
C1430      C1431   1.417       .  A
C1430      C1657   1.490       .  S
C1431      C1432   1.427       .  A
C1431      C1531   1.512       .  S
C1432      C1433   1.425       .  A
C1432      C1472   1.484       .  S
C1433      C1434   1.417       .  A
C1433      C1514   1.509       .  S
C1434      C1640   1.487       .  S
Fe1435     O1451   2.075       .  S
Fe1435     O1441   2.057       .  S
Fe1435     O1448   2.070       .  S
Fe1435     O1440   2.085       .  S
Fe1435     O1446   1.974       .  S
Fe1436     O1439   2.075       .  S
Fe1436     O1443   2.079       .  S
Fe1436     O1447   2.067       .  S
Fe1436     O1452   2.072       .  S
Fe1436     O1446   1.971       .  S
Fe1437     O1455   2.077       .  S
Fe1437     O1442   2.080       .  S
Fe1437     O1449   2.081       .  S
Fe1437     O1438   2.085       .  S
Fe1437     O1446   1.984       .  S
O1438      C1445   1.274       .  A
O1439      C1453   1.274       .  A
O1440      C1445   1.277       .  A
O1441      C1444   1.264       .  A
O1442      C1454   1.269       .  A
O1443      C1456   1.270       .  A
C1444      C1584   1.487       .  S
C1444      O1449   1.268       .  A
C1445      C1710   1.497       .  S
O1447      C1450   1.270       .  A
O1448      C1450   1.269       .  A
C1450      C1503   1.473       .  S
O1451      C1456   1.270       .  A
O1452      C1454   1.267       .  A
C1453      C1570   1.474       .  S
C1453      O1455   1.274       .  A
C1454      C1724   1.485       .  S
C1456      C1461   1.482       .  S
C1457      C1458   1.409       .  A
C1457      C1462   1.405       .  A
C1457      H1464   1.084       .  S
C1458      C1459   1.414       .  A
C1459      C1460   1.404       .  A
C1459      N1466   1.430       .  S
C1460      C1461   1.403       .  A
C1460      H1465   1.084       .  S
C1461      C1462   1.406       .  A
C1462      N1463   1.428       .  S
N1463      O1467   1.262       .  A
N1463      O1468   1.262       .  A
N1466      O1470   1.262       .  A
N1466      O1469   1.260       .  A
C1471      C1472   1.401       .  A
C1471      C1476   1.397       .  A
C1471      H1478   1.084       .  S
C1472      C1473   1.424       .  A
C1473      C1474   1.403       .  A
C1473      N1480   1.447       .  S
C1474      C1475   1.397       .  A
C1474      H1479   1.084       .  S
C1475      C1476   1.412       .  A
C1476      N1477   1.434       .  S
N1477      O1481   1.262       .  A
N1477      O1482   1.262       .  A
N1480      O1484   1.263       .  A
N1480      O1483   1.259       .  A
C1485      C1486   1.405       .  A
C1485      C1490   1.404       .  A
C1485      H1492   1.084       .  S
C1486      C1487   1.411       .  A
C1487      C1488   1.405       .  A
C1487      N1494   1.435       .  S
C1488      C1489   1.405       .  A
C1488      H1493   1.084       .  S
C1489      C1490   1.411       .  A
C1490      N1491   1.429       .  S
N1491      O1495   1.262       .  A
N1491      O1496   1.260       .  A
N1494      O1498   1.263       .  A
N1494      O1497   1.262       .  A
C1499      C1500   1.404       .  A
C1499      C1504   1.401       .  A
C1499      H1506   1.084       .  S
C1500      C1501   1.421       .  A
C1501      C1502   1.407       .  A
C1501      N1508   1.443       .  S
C1502      C1503   1.403       .  A
C1502      H1507   1.084       .  S
C1503      C1504   1.406       .  A
C1504      N1505   1.437       .  S
N1505      O1509   1.262       .  A
N1505      O1510   1.263       .  A
N1508      O1512   1.263       .  A
N1508      O1511   1.260       .  A
C1513      C1514   1.407       .  A
C1513      C1518   1.410       .  A
C1513      H1520   1.084       .  S
C1514      C1515   1.417       .  A
C1515      C1516   1.406       .  A
C1515      N1522   1.425       .  S
C1516      C1517   1.401       .  A
C1516      H1521   1.084       .  S
C1517      C1518   1.415       .  A
C1518      N1519   1.436       .  S
N1519      O1523   1.262       .  A
N1519      O1524   1.262       .  A
N1522      O1526   1.260       .  A
N1522      O1525   1.262       .  A
C1527      C1528   1.405       .  A
C1527      C1532   1.405       .  A
C1527      H1534   1.084       .  S
C1528      C1529   1.410       .  A
C1529      C1530   1.411       .  A
C1529      N1536   1.428       .  S
C1530      C1531   1.411       .  A
C1530      H1535   1.084       .  S
C1531      C1532   1.416       .  A
C1532      N1533   1.429       .  S
N1533      O1537   1.262       .  A
N1533      O1538   1.259       .  A
N1536      O1540   1.262       .  A
N1536      O1539   1.262       .  A
C1541      C1542   1.399       .  A
C1541      C1546   1.405       .  A
C1541      H1548   1.084       .  S
C1542      C1543   1.407       .  A
C1543      C1544   1.396       .  A
C1543      N1550   1.429       .  S
C1544      C1545   1.403       .  A
C1545      C1546   1.423       .  A
C1546      N1547   1.447       .  S
N1547      O1551   1.261       .  A
N1547      O1552   1.263       .  A
N1550      O1553   1.262       .  A
C1555      C1556   1.405       .  A
C1555      C1560   1.410       .  A
C1555      H1562   1.083       .  S
C1556      C1557   1.418       .  A
C1557      C1558   1.400       .  A
C1557      N1564   1.432       .  S
C1558      C1559   1.401       .  A
C1558      H1563   1.083       .  S
C1559      C1560   1.418       .  A
C1560      N1561   1.434       .  S
N1561      O1565   1.262       .  A
N1561      O1566   1.261       .  A
N1564      O1568   1.262       .  A
N1564      O1567   1.262       .  A
C1569      C1570   1.401       .  A
C1569      C1574   1.402       .  A
C1570      C1571   1.407       .  A
C1571      C1572   1.403       .  A
C1571      N1578   1.428       .  S
C1572      C1573   1.404       .  A
C1572      H1577   1.081       .  S
C1573      C1574   1.414       .  A
N1575      O1579   1.260       .  A
N1575      O1580   1.261       .  A
N1578      O1582   1.262       .  A
N1578      O1581   1.262       .  A
C1583      C1584   1.410       .  A
C1583      C1588   1.407       .  A
C1583      H1590   1.084       .  S
C1584      C1585   1.413       .  A
C1585      C1586   1.401       .  A
C1586      C1587   1.403       .  A
C1587      C1588   1.408       .  A
C1588      N1589   1.430       .  S
N1589      O1593   1.262       .  A
N1589      O1594   1.262       .  A
N1592      O1596   1.262       .  A
N1592      O1595   1.262       .  A
C1597      C1598   1.404       .  A
C1597      C1602   1.403       .  A
C1597      H1604   1.084       .  S
C1598      C1599   1.412       .  A
C1599      C1600   1.406       .  A
C1599      N1606   1.430       .  S
C1600      C1601   1.406       .  A
C1600      H1605   1.084       .  S
C1601      C1602   1.414       .  A
C1602      N1603   1.428       .  S
N1603      O1607   1.260       .  A
N1603      O1608   1.262       .  A
N1606      O1610   1.262       .  A
N1606      O1609   1.262       .  A
C1611      C1612   1.407       .  A
C1611      C1616   1.404       .  A
C1611      H1618   1.080       .  S
C1612      C1613   1.419       .  A
C1613      C1614   1.405       .  A
C1613      N1620   1.436       .  S
C1614      C1615   1.399       .  A
C1614      H1619   1.084       .  S
C1615      C1616   1.407       .  A
C1616      N1617   1.429       .  S
N1617      O1621   1.262       .  A
N1617      O1622   1.262       .  A
N1620      O1624   1.262       .  A
N1620      O1623   1.261       .  A
C1625      C3418   1.399       .  A
C1625      C1630   1.399       .  A
C1625      H1632   1.083       .  S
C1626      C3417   1.400       .  A
C1626      C1627   1.419       .  A
C1627      C1628   1.399       .  A
C1627      N1634   1.440       .  S
C1628      C1629   1.399       .  A
C1628      H1633   1.084       .  S
C1629      C3422   1.419       .  A
C1630      C3421   1.419       .  A
C1630      N1631   1.438       .  S
N1631      O1635   1.261       .  A
N1631      O1636   1.262       .  A
N1634      O1638   1.263       .  A
N1634      O1637   1.261       .  A
C1639      C1640   1.402       .  A
C1639      C1644   1.401       .  A
C1639      H1646   1.084       .  S
C1640      C1641   1.420       .  A
C1641      C1642   1.402       .  A
C1641      N1648   1.439       .  S
C1642      C1643   1.400       .  A
C1642      H1647   1.084       .  S
C1643      C1644   1.411       .  A
C1644      N1645   1.430       .  S
N1645      O1649   1.262       .  A
N1645      O1650   1.262       .  A
N1648      O1652   1.263       .  A
N1648      O1651   1.258       .  A
C1653      C1654   1.396       .  A
C1653      C1658   1.400       .  A
C1653      H1660   1.084       .  S
C1654      C1655   1.407       .  A
C1655      C1656   1.401       .  A
C1655      N1662   1.429       .  S
C1656      C1657   1.406       .  A
C1656      H1661   1.083       .  S
C1657      C1658   1.425       .  A
C1658      N1659   1.443       .  S
N1659      O1663   1.263       .  A
N1659      O1664   1.258       .  A
N1662      O1666   1.262       .  A
N1662      O1665   1.262       .  A
C1667      C1668   1.404       .  A
C1667      C1672   1.404       .  A
C1667      H1674   1.084       .  S
C1668      C1669   1.412       .  A
C1669      C1670   1.404       .  A
C1669      N1676   1.429       .  S
C1670      C1671   1.406       .  A
C1670      H1675   1.084       .  S
C1671      C1672   1.414       .  A
N1673      O1677   1.261       .  A
N1673      O1678   1.260       .  A
N1676      O1680   1.262       .  A
N1676      O1679   1.262       .  A
C1681      C1682   1.402       .  A
C1681      C1686   1.403       .  A
C1681      H1688   1.084       .  S
C1682      C1683   1.410       .  A
C1683      C1684   1.402       .  A
C1683      N1690   1.429       .  S
C1684      C1685   1.405       .  A
C1684      H1689   1.081       .  S
C1685      C1686   1.418       .  A
C1686      N1687   1.434       .  S
N1687      O1691   1.262       .  A
N1687      O1692   1.261       .  A
N1690      O1694   1.262       .  A
N1690      O1693   1.262       .  A
C1695      C3488   1.399   1_455  A
C1695      C1700   1.407       .  A
C1695      H1702   1.084       .  S
C1696      C3487   1.401       .  A
C1696      C1697   1.420       .  A
C1697      C1698   1.399       .  A
C1697      N1704   1.440       .  S
C1698      C1699   1.400       .  A
C1698      H1703   1.080       .  S
C1699      C3492   1.421       .  A
C1700      C3491   1.423   1_455  A
C1700      N1701   1.442       .  S
N1701      O1705   1.263       .  A
N1701      O1706   1.261       .  A
N1704      O1708   1.262       .  A
N1704      O1707   1.262       .  A
C1709      C1710   1.404       .  A
C1709      C1714   1.407       .  A
C1709      H1716   1.084       .  S
C1710      C1711   1.418       .  A
C1711      C1712   1.408   1_556  A
C1712      C1713   1.405   1_554  A
C1713      C1714   1.418       .  A
C1714      N1715   1.428       .  S
N1715      O1719   1.259       .  A
N1715      O1720   1.262       .  A
N1718      O1722   1.262       .  A
C1723      C1724   1.401       .  A
C1723      C1728   1.406   1_556  A
C1723      H1730   1.084   1_556  S
C1724      C1725   1.409       .  A
C1725      C1726   1.405       .  A
C1725      N1732   1.426       .  S
C1726      C1727   1.402       .  A
C1726      H1731   1.083       .  S
C1727      C1728   1.419   1_556  A
N1729      O1733   1.263       .  A
N1729      O1734   1.262       .  A
N1732      O1736   1.262       .  A
N1732      O1735   1.261       .  A
C1737      C3530   1.395       .  A
C1737      C1742   1.398       .  A
C1737      H1744   1.084       .  S
C1738      C3529   1.394       .  A
C1738      C1739   1.416       .  A
C1739      C1740   1.400       .  A
C1739      N1746   1.445       .  S
C1740      C1741   1.396       .  A
C1740      H1745   1.080       .  S
C1741      C3534   1.415       .  A
C1741      C3140   1.475       .  S
C1742      C3533   1.415       .  A
N1743      O1747   1.258       .  A
N1743      O1748   1.262       .  A
N1746      O1750   1.261       .  A
N1746      O1749   1.262       .  A
C1751      C1752   1.399       .  A
C1751      C1756   1.399       .  A
C1752      C1753   1.422       .  A
C1753      C1754   1.405       .  A
C1753      N1760   1.441       .  S
C1754      C1755   1.399       .  A
C1754      H1759   1.084       .  S
C1755      C1756   1.408       .  A
C1756      N1757   1.425       .  S
N1757      O1762   1.261       .  A
N1760      O1763   1.261       .  A
C1765      H1772   1.084   1_554  S
C1766      C1767   1.415       .  A
C1767      C1768   1.402       .  A
C1767      N1774   1.429   1_565  S
C1768      C1769   1.401       .  A
C1768      H1773   1.084       .  S
C1769      C1770   1.407       .  A
N1771      O1775   1.262       .  A
N1771      O1776   1.262       .  A
N1774      O1777   1.263   1_545  A
C1779      C3572   1.403       .  A
C1779      C1784   1.412       .  A
C1779      H1786   1.068       .  S
C1780      C3571   1.401       .  A
C1780      C1781   1.420       .  A
C1781      C1782   1.399       .  A
C1781      N1788   1.442       .  S
C1782      C1783   1.398       .  A
C1782      H1787   1.097       .  S
C1783      C3576   1.418       .  A
C1784      C3575   1.418       .  A
C1784      N1785   1.443   1_565  S
N1785      O1789   1.263       .  A
N1785      O1790   1.262       .  A
N1788      O1792   1.263       .  A
N1788      O1791   1.261       .  A
C1793      C1794   1.420       .  A
C1793      C2231   1.501       .  S
C1794      C3139   1.411   1_554  A
C1794      C2214   1.492       .  S
C1795      C3138   1.410   1_545  A
C1795      C2175   1.489       .  S
C1796      C1797   1.414   1_455  A
C1797      C3142   1.412   1_545  A
C1797      C2161   1.503       .  S
C1798      C3141   1.417   1_554  A
C1798      C2200   1.490       .  S
Fe1799     O1815   2.045       .  S
Fe1799     O1805   2.069       .  S
Fe1799     O1812   2.062       .  S
Fe1799     O1804   2.060       .  S
Fe1800     O1803   2.047       .  S
Fe1800     O1807   2.075       .  S
Fe1800     O1811   2.042       .  S
Fe1800     O1816   2.071       .  S
Fe1800     O1810   1.974       .  S
Fe1801     O1813   2.057       .  S
Fe1801     O1802   2.079       .  S
O1802      C1809   1.268       .  A
O1803      C1817   1.263       .  A
O1804      C1809   1.265       .  A
O1805      C1808   1.272       .  A
O1806      C1818   1.271       .  A
C1808      C2102   1.474       .  S
C1808      O1813   1.271       .  A
C1809      C2116   1.488       .  S
O1811      C1814   1.262       .  A
C1814      C2186   1.459       .  S
O1815      C1820   1.261       .  A
O1816      C1818   1.272       .  A
C1817      C2091   1.476       .  S
C1817      O1819   1.267       .  A
C1818      C2130   1.479       .  S
C1820      C2144   1.484       .  S
C1821      C1826   1.423       .  A
C1821      C2147   1.497       .  S
C1822      C2271   1.411       .  A
C1822      C2021   1.490       .  S
C1823      C2270   1.413   1_554  A
C1823      C2049   1.502       .  S
C1824      C1825   1.417   1_455  A
C1824      C2074   1.486       .  S
C1825      C2274   1.410   1_554  A
C1825      C2060   1.497       .  S
C1826      C2273   1.410       .  A
C1826      C2035   1.491       .  S
Fe1827     O1843   2.059       .  S
Fe1827     O1833   2.051       .  S
Fe1827     O1840   2.054       .  S
Fe1827     O1832   2.056       .  S
Fe1828     O1831   2.079       .  S
Fe1828     O1835   2.046       .  S
Fe1828     O1839   2.084       .  S
Fe1828     O1844   2.043       .  S
Fe1828     O1838   1.970       .  S
Fe1829     O1841   2.102   1_455  S
Fe1829     O1830   2.064   1_455  S
O1830      C1837   1.271       .  A
O1831      C1845   1.272       .  A
O1832      C1837   1.269       .  A
O1833      C1836   1.265       .  A
O1834      C1846   1.275       .  A
C1836      C1976   1.491       .  S
C1836      O1841   1.274       .  A
C1837      C1990   1.469       .  S
O1839      C1842   1.271       .  A
C1842      C2228   1.485       .  S
O1843      C1848   1.270   1_655  A
O1844      C1846   1.264       .  A
C1845      C1965   1.486       .  S
C1845      O1847   1.272       .  A
C1846      C2004   1.494       .  S
C1848      C2077   1.473       .  S
C1849      C1850   1.430       .  A
C1849      C1854   1.420       .  A
C1849      C1948   1.500       .  S
C1850      C2747   1.421   1_545  A
C1850      C2133   1.495       .  S
C1851      C2746   1.419       .  A
C1851      C1852   1.419       .  A
C1851      C2007   1.500       .  S
C1852      C1853   1.418       .  A
C1852      C1937   1.499       .  S
C1853      C2750   1.411       .  A
C1853      C1993   1.478       .  S
C1854      C2749   1.415   1_545  A
C1854      C2119   1.504       .  S
Fe1855     O1871   2.059       .  S
Fe1855     O1861   2.073       .  S
Fe1855     O1868   2.072       .  S
Fe1855     O1860   2.053       .  S
Fe1855     O1866   1.970       .  S
Fe1856     O1859   2.064       .  S
Fe1856     O1863   2.053       .  S
Fe1856     O1867   2.077       .  S
Fe1856     O1872   2.066       .  S
Fe1856     O1866   1.968       .  S
Fe1857     O1875   2.085       .  S
Fe1857     O1862   2.075       .  S
Fe1857     O1869   2.073       .  S
Fe1857     O1858   2.081       .  S
Fe1857     O1866   1.987       .  S
O1858      C1865   1.271       .  A
O1859      C1873   1.265       .  A
O1860      C1865   1.265       .  A
O1861      C1864   1.272       .  A
O1862      C1874   1.273       .  A
O1863      C1876   1.268       .  A
C1864      C2063   1.472       .  S
C1864      O1869   1.271       .  A
C1865      C2203   1.479       .  S
O1867      C1870   1.269       .  A
O1868      C1870   1.269       .  A
C1870      C1934   1.483       .  S
O1871      C1876   1.266       .  A
O1872      C1874   1.273       .  A
C1873      C2046   1.493       .  S
C1873      O1875   1.268       .  A
C1874      C2217   1.473       .  S
C1876      C1923   1.467       .  S
C1877      C1878   1.418       .  A
C1877      C1882   1.419       .  A
C1877      C1906   1.504       .  S
C1878      C1879   1.416       .  A
C1878      C2105   1.486       .  S
C1879      C1880   1.426       .  A
C1879      C1979   1.510       .  S
C1880      C1881   1.422       .  A
C1880      C1920   1.482       .  S
C1881      C1882   1.414       .  A
C1881      C1962   1.510       .  S
C1882      C2088   1.479       .  S
Fe1883     O1899   2.069       .  S
Fe1883     O1889   2.057       .  S
Fe1883     O1896   2.079       .  S
Fe1883     O1888   2.080       .  S
Fe1883     O1894   1.976       .  S
Fe1884     O1887   2.071       .  S
Fe1884     O1891   2.073       .  S
Fe1884     O1895   2.072       .  S
Fe1884     O1900   2.070       .  S
Fe1884     O1894   1.971       .  S
Fe1885     O1903   2.071       .  S
Fe1885     O1890   2.077       .  S
Fe1885     O1897   2.077       .  S
Fe1885     O1886   2.079       .  S
Fe1885     O1894   1.989       .  S
O1886      C1893   1.273       .  A
O1887      C1901   1.273       .  A
O1888      C1893   1.276       .  A
O1889      C1892   1.263       .  A
O1890      C1902   1.268       .  A
O1891      C1904   1.270       .  A
C1892      C2032   1.486       .  S
C1892      O1897   1.267       .  A
C1893      C2158   1.492       .  S
O1895      C1898   1.271       .  A
O1896      C1898   1.270       .  A
C1898      C1951   1.480       .  S
O1899      C1904   1.268       .  A
O1900      C1902   1.267       .  A
C1901      C2018   1.469       .  S
C1901      O1903   1.273       .  A
C1902      C2172   1.485       .  S
C1904      C1909   1.476       .  S
C1905      C1906   1.411       .  A
C1905      C1910   1.407       .  A
C1905      H1912   1.084       .  S
C1906      C1907   1.414       .  A
C1907      C1908   1.399       .  A
C1907      N1914   1.427       .  S
C1908      C1909   1.398       .  A
C1908      H1913   1.084       .  S
C1909      C1910   1.407       .  A
C1910      N1911   1.430       .  S
N1911      O1915   1.262       .  A
N1911      O1916   1.262       .  A
N1914      O1918   1.263       .  A
N1914      O1917   1.260       .  A
C1919      C1920   1.401       .  A
C1919      C1924   1.396       .  A
C1919      H1926   1.084       .  S
C1920      C1921   1.423       .  A
C1921      C1922   1.403       .  A
C1921      N1928   1.447       .  S
C1922      C1923   1.397       .  A
C1922      H1927   1.084       .  S
C1923      C1924   1.412       .  A
C1924      N1925   1.435       .  S
N1925      O1929   1.262       .  A
N1925      O1930   1.262       .  A
N1928      O1932   1.263       .  A
N1928      O1931   1.260       .  A
C1933      C1934   1.405       .  A
C1933      C1938   1.405       .  A
C1933      H1940   1.084       .  S
C1934      C1935   1.411       .  A
C1935      C1936   1.405       .  A
C1935      N1942   1.435       .  S
C1936      C1937   1.405       .  A
C1936      H1941   1.084       .  S
C1937      C1938   1.411       .  A
C1938      N1939   1.429       .  S
N1939      O1943   1.262       .  A
N1939      O1944   1.261       .  A
N1942      O1946   1.263       .  A
N1942      O1945   1.262       .  A
C1947      C1948   1.404       .  A
C1947      C1952   1.404       .  A
C1947      H1954   1.084       .  S
C1948      C1949   1.422       .  A
C1949      C1950   1.411       .  A
C1949      N1956   1.442       .  S
C1950      C1951   1.404       .  A
C1950      H1955   1.083       .  S
C1951      C1952   1.407       .  A
C1952      N1953   1.436       .  S
N1953      O1957   1.262       .  A
N1953      O1958   1.263       .  A
N1956      O1960   1.263       .  A
N1956      O1959   1.260       .  A
C1961      C1962   1.408       .  A
C1961      C1966   1.411       .  A
C1961      H1968   1.084       .  S
C1962      C1963   1.417       .  A
C1963      C1964   1.404       .  A
C1963      N1970   1.423       .  S
C1964      C1965   1.399       .  A
C1964      H1969   1.085       .  S
C1965      C1966   1.415       .  A
C1966      N1967   1.436       .  S
N1967      O1971   1.262       .  A
N1967      O1972   1.262       .  A
N1970      O1974   1.260       .  A
N1970      O1973   1.262       .  A
C1975      C1976   1.404       .  A
C1975      C1980   1.404       .  A
C1975      H1982   1.084       .  S
C1976      C1977   1.410       .  A
C1977      C1978   1.410       .  A
C1977      N1984   1.429       .  S
C1978      C1979   1.411       .  A
C1978      H1983   1.084       .  S
C1979      C1980   1.416       .  A
C1980      N1981   1.429       .  S
N1981      O1985   1.262       .  A
N1981      O1986   1.260       .  A
N1984      O1988   1.262       .  A
N1984      O1987   1.262       .  A
C1989      C1990   1.399       .  A
C1989      C1994   1.403       .  A
C1989      H1996   1.083       .  S
C1990      C1991   1.406       .  A
C1991      C1992   1.395       .  A
C1991      N1998   1.430       .  S
C1992      C1993   1.402       .  A
C1992      H2893   1.083       .  S
C1993      C1994   1.423       .  A
C1994      N1995   1.448       .  S
N1995      O1999   1.261       .  A
N1995      O2000   1.263       .  A
H1997      C2888   1.083       .  S
N1998      O2898   1.262       .  A
N1998      O2001   1.262       .  A
O2002      N2894   1.262       .  A
C2003      C2004   1.405       .  A
C2003      C2008   1.410       .  A
C2003      H2010   1.083       .  S
C2004      C2005   1.418       .  A
C2005      C2006   1.399       .  A
C2005      N2012   1.432       .  S
C2006      C2007   1.401       .  A
C2006      H2011   1.083       .  S
C2007      C2008   1.417       .  A
C2008      N2009   1.432       .  S
N2009      O2013   1.262       .  A
N2009      O2014   1.261       .  A
N2012      O2016   1.262       .  A
N2012      O2015   1.262       .  A
C2017      C2018   1.399       .  A
C2017      C2022   1.401       .  A
C2017      H2472   1.084       .  S
C2018      C2019   1.406       .  A
C2019      C2020   1.401       .  A
C2019      N2026   1.428       .  S
C2020      C2021   1.404       .  A
C2020      H2025   1.080       .  S
C2021      C2022   1.415       .  A
C2022      N2471   1.434       .  S
N2023      C2470   1.432   1_554  S
N2023      O2027   1.260       .  A
N2023      O2028   1.262       .  A
H2024      C2465   1.084       .  S
N2026      O2030   1.262       .  A
N2026      O2029   1.262       .  A
C2031      C2032   1.409       .  A
C2031      C2036   1.406       .  A
C2031      H2038   1.084       .  S
C2032      C2033   1.413       .  A
C2033      C2034   1.401       .  A
C2033      N2488   1.431       .  S
C2034      C2035   1.403       .  A
C2034      H2487   1.084       .  S
C2035      C2036   1.407       .  A
C2036      N2037   1.429       .  S
N2037      O2041   1.262       .  A
N2037      O2042   1.261       .  A
H2039      C2482   1.084       .  S
N2040      C2481   1.436   1_554  S
N2040      O2044   1.262       .  A
N2040      O2043   1.263       .  A
C2045      C2046   1.407       .  A
C2045      C2050   1.406       .  A
C2045      H2052   1.084       .  S
C2046      C2047   1.413       .  A
C2047      C2048   1.406   1_554  A
C2047      N2054   1.430   1_554  S
C2048      C2049   1.406   1_556  A
C2048      H2053   1.084       .  S
C2049      C2050   1.413       .  A
C2050      N2051   1.429       .  S
N2051      O2055   1.261       .  A
N2051      O2056   1.262       .  A
N2054      O2058   1.262       .  A
N2054      O2057   1.262       .  A
C2059      C2060   1.406       .  A
C2059      C2064   1.404       .  A
C2059      H2066   1.080       .  S
C2060      C2061   1.417       .  A
C2061      C2062   1.402       .  A
C2061      N2068   1.434   1_554  S
C2062      C2063   1.398       .  A
C2062      H2067   1.084       .  S
C2063      C2064   1.407       .  A
C2064      N2065   1.430       .  S
N2065      O2069   1.262       .  A
N2065      O2070   1.262       .  A
N2068      O2072   1.262       .  A
N2068      O2071   1.261       .  A
C2073      C2078   1.397       .  A
C2073      H2080   1.082       .  S
C2074      C2075   1.419   1_455  A
C2075      C2076   1.400       .  A
C2075      N2082   1.441       .  S
C2076      C2077   1.399   1_655  A
C2076      H2081   1.084       .  S
C2078      N2079   1.438       .  S
N2079      O2083   1.262       .  A
N2079      O2084   1.262       .  A
N2082      O2086   1.263       .  A
N2082      O2085   1.262       .  A
C2087      C2088   1.400       .  A
C2087      C2092   1.398       .  A
C2087      H2094   1.084       .  S
C2088      C2089   1.416       .  A
C2089      C2090   1.401       .  A
C2089      N2096   1.436       .  S
C2090      C2091   1.403       .  A
C2090      H2095   1.084       .  S
C2091      C2092   1.411       .  A
C2092      N2093   1.429       .  S
N2093      O2097   1.262       .  A
N2093      O2098   1.262       .  A
N2096      O2100   1.261       .  A
N2096      O2099   1.258       .  A
C2101      C2102   1.398       .  A
C2101      C2106   1.399       .  A
C2101      H2108   1.083       .  S
C2102      C2103   1.408       .  A
C2103      C2104   1.401       .  A
C2103      N2110   1.429       .  S
C2104      C2105   1.405       .  A
C2104      H2109   1.083       .  S
C2105      C2106   1.422       .  A
C2106      N2107   1.444       .  S
N2107      O2111   1.263       .  A
N2107      O2112   1.259       .  A
N2110      O2114   1.262       .  A
N2110      O2113   1.262       .  A
C2115      C2116   1.404       .  A
C2115      C2120   1.405       .  A
C2115      H2122   1.084       .  S
C2116      C2117   1.412       .  A
C2117      C2118   1.405       .  A
C2117      N2124   1.430       .  S
C2118      C2119   1.406       .  A
C2118      H2123   1.084       .  S
C2119      C2120   1.414       .  A
C2120      N3017   1.429   1_545  S
N2121      C3016   1.428       .  S
N2121      O2125   1.260       .  A
N2121      O2126   1.261       .  A
N2124      O2128   1.262       .  A
N2124      O2127   1.262       .  A
C2129      C2130   1.401       .  A
C2129      C2134   1.402       .  A
C2129      H2136   1.084       .  S
C2130      C2131   1.410       .  A
C2131      C2132   1.400       .  A
C2131      N2138   1.430       .  S
C2132      C2133   1.404       .  A
C2132      H2137   1.081       .  S
C2133      C2134   1.419       .  A
C2134      N2135   1.437       .  S
N2135      O2139   1.263       .  A
N2135      O2140   1.261       .  A
N2138      O2142   1.262       .  A
N2138      O2141   1.262       .  A
C2143      C2148   1.406       .  A
C2143      H2150   1.084       .  S
C2144      C2145   1.420       .  A
C2145      C2146   1.399       .  A
C2145      N2152   1.440       .  S
C2146      C2147   1.400       .  A
C2146      H2151   1.080       .  S
C2148      N2149   1.442       .  S
N2149      O2153   1.263       .  A
N2149      O2154   1.262       .  A
N2152      O2156   1.262       .  A
N2152      O2155   1.263       .  A
C2157      C2158   1.404       .  A
C2157      C2162   1.404       .  A
C2157      H2164   1.084       .  S
C2158      C2159   1.417       .  A
C2159      C2160   1.405       .  A
C2159      N2614   1.432       .  S
C2160      C2161   1.404       .  A
C2160      H2613   1.084       .  S
C2161      C2162   1.416       .  A
C2162      N2163   1.428       .  S
N2163      O2167   1.260   1_545  A
N2163      O2168   1.262       .  A
H2165      C2608   1.084   1_554  S
N2166      C2607   1.430   1_554  S
N2166      O2170   1.262       .  A
N2166      O2617   1.262       .  A
O2169      N2614   1.262       .  A
C2171      C2172   1.406       .  A
C2171      C2176   1.406       .  A
C2171      H2178   1.084       .  S
C2172      C2173   1.410       .  A
C2173      C2174   1.402       .  A
C2173      N2180   1.426       .  S
C2174      C2175   1.400       .  A
C2174      H2179   1.083       .  S
C2175      C2176   1.417       .  A
C2176      N2625   1.436       .  S
N2177      C2624   1.444       .  S
N2177      O2181   1.263       .  A
N2177      O2182   1.262       .  A
N2180      O2184   1.261       .  A
N2180      O2183   1.261       .  A
C2185      C2190   1.396       .  A
C2185      H2192   1.084       .  S
C2186      C2187   1.415       .  A
C2187      C2188   1.400       .  A
C2187      N2194   1.444       .  S
C2188      C2189   1.398       .  A
C2188      H2193   1.054       .  S
C2190      N3087   1.433   1_545  S
N2191      C3086   1.439       .  S
N2191      O2195   1.263   1_455  A
N2191      O2196   1.262       .  A
N2194      O2198   1.262       .  A
N2194      O2197   1.261       .  A
C2199      C2200   1.400       .  A
C2199      C2204   1.400       .  A
C2199      H3102   1.084       .  S
C2200      C2201   1.423   1_554  A
C2201      C2202   1.406   1_556  A
C2201      N2208   1.439       .  S
C2202      C2203   1.398       .  A
C2202      H2207   1.084   1_554  S
C2203      C2204   1.409       .  A
C2204      N2205   1.425       .  S
N2205      O3105   1.262       .  A
N2205      O2210   1.261       .  A
H2206      C3095   1.083   1_545  S
N2208      O2660   1.263       .  A
N2208      O2211   1.261       .  A
O2209      N3101   1.262       .  A
O2212      N2656   1.258       .  A
C2213      C2662   1.406       .  A
C2213      C2666   1.402       .  A
C2213      H2220   1.084       .  S
C2214      C2661   1.404       .  A
C2214      C2215   1.413       .  A
C2215      C2216   1.402       .  A
C2215      N2222   1.425       .  S
C2216      C2217   1.400       .  A
C2216      H2221   1.084       .  S
C2217      C2218   1.409       .  A
C2218      C2661   1.399       .  A
C2218      N2667   1.431   1_554  S
N2219      C2666   1.428       .  S
N2219      O2223   1.262       .  A
N2219      O2224   1.262       .  A
N2222      O3122   1.262       .  A
N2222      O2225   1.261       .  A
O2226      N3118   1.259       .  A
C2227      C2232   1.410       .  A
C2227      H2234   1.083   1_655  S
C2228      C2229   1.417       .  A
C2229      C2230   1.403       .  A
C2229      N2236   1.437       .  S
C2230      C2231   1.402       .  A
C2230      H2235   1.080       .  S
C2232      N2233   1.445       .  S
N2233      O2237   1.262       .  A
N2233      O2238   1.263   1_655  A
N2236      O2240   1.262       .  A
N2236      O2239   1.262       .  A
C2241      C2242   1.419       .  A
C2241      C2679   1.490       .  S
C2242      C2691   1.411       .  A
C2242      C2662   1.497       .  S
C2243      C2690   1.411   1_546  A
C2243      C2623   1.498       .  S
C2244      C2245   1.415   1_455  A
C2245      C2694   1.412   1_546  A
C2245      C2609   1.504       .  S
C2246      C2693   1.413       .  A
C2246      C2648   1.487       .  S
Fe2247     O2263   2.045       .  S
Fe2247     O2253   2.063       .  S
Fe2247     O2260   2.057       .  S
Fe2247     O2252   2.056       .  S
Fe2248     O2251   2.049       .  S
Fe2248     O2255   2.075       .  S
Fe2248     O2259   2.038       .  S
Fe2248     O2264   2.075       .  S
Fe2248     O2258   1.974       .  S
Fe2249     O2261   2.062   1_455  S
Fe2249     O2250   2.080   1_455  S
O2250      C2257   1.268       .  A
O2251      C2265   1.263       .  A
O2252      C2257   1.264       .  A
O2253      C2256   1.271       .  A
O2254      C2266   1.270       .  A
C2256      C2550   1.472       .  S
C2256      O2261   1.272       .  A
C2257      C2564   1.487       .  S
O2259      C2262   1.262       .  A
C2262      C2634   1.458       .  S
O2263      C2268   1.261       .  A
O2264      C2266   1.272       .  A
C2265      C2539   1.479       .  S
C2265      O2267   1.268       .  A
C2266      C2578   1.479       .  S
C2268      C2592   1.483       .  S
C2269      C2274   1.423       .  A
C2269      C2595   1.497       .  S
C2270      C2469   1.492       .  S
C2271      C2497   1.501       .  S
C2272      C2273   1.416   1_455  A
C2272      C2522   1.487       .  S
C2273      C2508   1.496       .  S
C2274      C2483   1.495       .  S
Fe2275     O2291   2.068       .  S
Fe2275     O2281   2.056       .  S
Fe2275     O2288   2.059       .  S
Fe2275     O2280   2.057       .  S
Fe2276     O2279   2.083       .  S
Fe2276     O2283   2.041       .  S
Fe2276     O2287   2.081       .  S
Fe2276     O2292   2.042       .  S
Fe2276     O2286   1.975       .  S
Fe2277     O2289   2.114   1_455  S
Fe2277     O2278   2.062   1_455  S
O2278      C2285   1.269       .  A
O2279      C2293   1.273       .  A
O2280      C2285   1.268       .  A
O2281      C2284   1.268       .  A
O2282      C2294   1.275       .  A
C2284      C2424   1.500       .  S
C2284      O2289   1.277       .  A
C2285      C2438   1.468       .  S
O2287      C2290   1.270       .  A
C2290      C2676   1.476       .  S
O2291      C2296   1.271   1_655  A
O2292      C2294   1.264       .  A
C2293      C2413   1.486       .  S
C2293      O2295   1.271       .  A
C2294      C2452   1.495       .  S
C2296      C2525   1.466       .  S
C2297      C2298   1.428       .  A
C2297      C2302   1.422       .  A
C2297      C2396   1.495       .  S
C2298      C3195   1.417   1_545  A
C2298      C2581   1.496       .  S
C2299      C3194   1.417       .  A
C2299      C2300   1.418       .  A
C2299      C2455   1.500       .  S
C2300      C2301   1.419       .  A
C2300      C2385   1.499       .  S
C2301      C3198   1.415       .  A
C2301      C2441   1.483       .  S
C2302      C3197   1.415   1_545  A
C2302      C2567   1.505       .  S
Fe2303     O2319   2.058       .  S
Fe2303     O2309   2.070       .  S
Fe2303     O2316   2.072       .  S
Fe2303     O2308   2.046       .  S
Fe2303     O2314   1.970       .  S
Fe2304     O2307   2.060       .  S
Fe2304     O2311   2.051       .  S
Fe2304     O2315   2.079       .  S
Fe2304     O2320   2.062       .  S
Fe2304     O2314   1.965       .  S
Fe2305     O2323   2.084       .  S
Fe2305     O2310   2.089       .  S
Fe2305     O2317   2.081       .  S
Fe2305     O2306   2.079       .  S
Fe2305     O2314   1.987       .  S
O2306      C2313   1.270       .  A
O2307      C2321   1.266       .  A
O2308      C2313   1.263       .  A
O2309      C2312   1.272       .  A
O2310      C2322   1.275       .  A
O2311      C2324   1.267       .  A
C2312      C2511   1.474       .  S
C2312      O2317   1.273       .  A
C2313      C2651   1.470       .  S
O2315      C2318   1.270       .  A
O2316      C2318   1.270       .  A
C2318      C2382   1.482       .  S
O2319      C2324   1.264       .  A
O2320      C2322   1.272       .  A
C2321      C2494   1.490       .  S
C2321      O2323   1.269       .  A
C2322      C2665   1.482       .  S
C2324      C2371   1.467       .  S
C2325      C2326   1.420       .  A
C2325      C2330   1.422       .  A
C2325      C2354   1.503       .  S
C2326      C2327   1.415       .  A
C2326      C2553   1.487       .  S
C2327      C2328   1.425       .  A
C2327      C2427   1.512       .  S
C2328      C2329   1.425       .  A
C2328      C2368   1.483       .  S
C2329      C2330   1.417       .  A
C2329      C2410   1.509       .  S
C2330      C2536   1.487       .  S
Fe2331     O2347   2.075       .  S
Fe2331     O2337   2.065       .  S
Fe2331     O2344   2.077       .  S
Fe2331     O2336   2.080       .  S
Fe2331     O2342   1.971       .  S
Fe2332     O2335   2.076       .  S
Fe2332     O2339   2.079       .  S
Fe2332     O2343   2.069       .  S
Fe2332     O2348   2.074       .  S
Fe2332     O2342   1.969       .  S
Fe2333     O2351   2.078       .  S
Fe2333     O2338   2.084       .  S
Fe2333     O2345   2.081       .  S
Fe2333     O2334   2.083       .  S
Fe2333     O2342   1.983       .  S
O2334      C2341   1.274       .  A
O2335      C2349   1.275       .  A
O2336      C2341   1.275       .  A
O2337      C2340   1.266       .  A
O2338      C2350   1.270       .  A
O2339      C2352   1.270       .  A
C2340      C2480   1.492       .  S
C2340      O2345   1.268       .  A
C2341      C2606   1.484       .  S
O2343      C2346   1.272       .  A
O2344      C2346   1.271       .  A
C2346      C2399   1.478       .  S
O2347      C2352   1.269       .  A
O2348      C2350   1.267       .  A
C2349      C2466   1.474       .  S
C2349      O2351   1.275       .  A
C2350      C2620   1.490       .  S
C2352      C2357   1.483       .  S
C2353      C2354   1.409       .  A
C2353      C2358   1.405       .  A
C2353      H2360   1.084       .  S
C2354      C2355   1.413       .  A
C2355      C2356   1.405       .  A
C2355      N2362   1.429       .  S
C2356      C2357   1.405       .  A
C2356      H2361   1.084       .  S
C2357      C2358   1.407       .  A
C2358      N2359   1.429       .  S
N2359      O2363   1.262       .  A
N2359      O2364   1.262       .  A
N2362      O2366   1.262       .  A
N2362      O2365   1.261       .  A
C2367      C2368   1.401       .  A
C2367      C2372   1.397       .  A
C2367      H2374   1.083       .  S
C2368      C2369   1.422       .  A
C2369      C2370   1.403       .  A
C2369      N2376   1.446       .  S
C2370      C2371   1.397       .  A
C2370      H2375   1.084       .  S
C2371      C2372   1.412       .  A
C2372      N2373   1.435       .  S
N2373      O2377   1.262       .  A
N2373      O2378   1.262       .  A
N2376      O2380   1.263       .  A
N2376      O2379   1.260       .  A
C2381      C2382   1.404       .  A
C2381      C2386   1.404       .  A
C2381      H2388   1.084       .  S
C2382      C2383   1.413       .  A
C2383      C2384   1.407       .  A
C2383      N2390   1.438       .  S
C2384      C2385   1.406       .  A
C2384      H2389   1.084       .  S
C2385      C2386   1.410       .  A
C2386      N2387   1.429       .  S
N2387      O2391   1.261       .  A
N2387      O2392   1.260       .  A
N2390      O2394   1.263       .  A
N2390      O2393   1.263       .  A
C2395      C2396   1.404       .  A
C2395      C2400   1.402       .  A
C2395      H2402   1.084       .  S
C2396      C2397   1.421       .  A
C2397      C2398   1.409       .  A
C2397      N2404   1.443       .  S
C2398      C2399   1.404       .  A
C2398      H2403   1.084       .  S
C2399      C2400   1.408       .  A
C2400      N2401   1.438       .  S
N2401      O2405   1.262       .  A
N2401      O2406   1.263       .  A
N2404      O2408   1.263       .  A
N2404      O2407   1.260       .  A
C2409      C2410   1.407       .  A
C2409      C2414   1.409       .  A
C2409      H2416   1.084       .  S
C2410      C2411   1.417       .  A
C2411      C2412   1.406       .  A
C2411      N2418   1.426       .  S
C2412      C2413   1.400       .  A
C2412      H2417   1.084       .  S
C2413      C2414   1.415       .  A
C2414      N2415   1.437       .  S
N2415      O2419   1.262       .  A
N2415      O2420   1.262       .  A
N2418      O2422   1.259       .  A
N2418      O2421   1.262       .  A
C2423      C2424   1.407       .  A
C2423      C2428   1.406       .  A
C2423      H2430   1.084       .  S
C2424      C2425   1.413       .  A
C2425      C2426   1.411       .  A
C2425      N2432   1.429       .  S
C2426      C2427   1.410       .  A
C2426      H2431   1.084       .  S
C2427      C2428   1.415       .  A
C2428      N2429   1.428       .  S
N2429      O2433   1.262       .  A
N2429      O2434   1.260       .  A
N2432      O2436   1.262       .  A
N2432      O2435   1.262       .  A
C2437      C2438   1.397       .  A
C2437      C2442   1.405       .  A
C2437      H2444   1.084       .  S
C2438      C2439   1.406       .  A
C2439      C2440   1.395       .  A
C2439      N2446   1.429       .  S
C2440      C2441   1.402       .  A
C2440      H3341   1.083       .  S
C2441      C2442   1.425       .  A
C2442      N2443   1.448       .  S
N2443      O2447   1.261       .  A
N2443      O2448   1.263       .  A
H2445      C3336   1.083       .  S
N2446      O3346   1.262       .  A
N2446      O2449   1.262       .  A
O2450      N3342   1.262       .  A
C2451      C2452   1.404       .  A
C2451      C2456   1.409       .  A
C2451      H2458   1.083       .  S
C2452      C2453   1.419       .  A
C2453      C2454   1.400       .  A
C2453      N2460   1.432       .  S
C2454      C2455   1.401       .  A
C2454      H2459   1.083       .  S
C2455      C2456   1.418       .  A
C2456      N2457   1.434       .  S
N2457      O2461   1.262       .  A
N2457      O2462   1.261       .  A
N2460      O2464   1.262       .  A
N2460      O2463   1.262       .  A
C2465      C2466   1.400       .  A
C2465      C2470   1.401       .  A
C2466      C2467   1.407       .  A
C2467      C2468   1.403       .  A
C2467      N2474   1.428       .  S
C2468      C2469   1.404       .  A
C2468      H2473   1.081       .  S
C2469      C2470   1.414       .  A
N2471      O2475   1.260       .  A
N2471      O2476   1.261       .  A
N2474      O2478   1.262       .  A
N2474      O2477   1.262       .  A
C2479      C2480   1.410       .  A
C2479      C2484   1.407       .  A
C2479      H2486   1.084       .  S
C2480      C2481   1.418       .  A
C2481      C2482   1.405   1_556  A
C2482      C2483   1.403   1_554  A
C2483      C2484   1.407       .  A
C2484      N2485   1.429       .  S
N2485      O2489   1.262       .  A
N2485      O2490   1.262       .  A
N2488      O2492   1.262       .  A
N2488      O2491   1.262       .  A
C2493      C2494   1.407       .  A
C2493      C2498   1.405       .  A
C2493      H2500   1.084       .  S
C2494      C2495   1.410       .  A
C2495      C2496   1.404       .  A
C2495      N2502   1.428       .  S
C2496      C2497   1.407       .  A
C2496      H2501   1.083       .  S
C2497      C2498   1.413       .  A
C2498      N2499   1.429       .  S
N2499      O2503   1.261       .  A
N2499      O2504   1.262       .  A
N2502      O2506   1.261       .  A
N2502      O2505   1.262       .  A
C2507      C2508   1.405       .  A
C2507      C2512   1.404       .  A
C2507      H2514   1.080       .  S
C2508      C2509   1.415       .  A
C2509      C2510   1.403       .  A
C2509      N2516   1.433       .  S
C2510      C2511   1.401       .  A
C2510      H2515   1.084       .  S
C2511      C2512   1.407       .  A
C2512      N2513   1.431       .  S
N2513      O2517   1.262       .  A
N2513      O2518   1.262       .  A
N2516      O2520   1.261       .  A
N2516      O2519   1.261       .  A
C2521      C2526   1.399       .  A
C2521      H2528   1.082       .  S
C2522      C2523   1.419   1_455  A
C2523      C2524   1.399       .  A
C2523      N2530   1.440       .  S
C2524      C2525   1.397   1_655  A
C2524      H2529   1.084       .  S
C2526      N2527   1.440       .  S
N2527      O2531   1.261       .  A
N2527      O2532   1.262       .  A
N2530      O2534   1.263       .  A
N2530      O2533   1.261       .  A
C2535      C2536   1.402       .  A
C2535      C2540   1.400       .  A
C2535      H2542   1.084       .  S
C2536      C2537   1.421       .  A
C2537      C2538   1.402       .  A
C2537      N2544   1.440       .  S
C2538      C2539   1.399       .  A
C2538      H2543   1.084       .  S
C2539      C2540   1.411       .  A
C2540      N2541   1.430       .  S
N2541      O2545   1.262       .  A
N2541      O2546   1.262       .  A
N2544      O2548   1.263       .  A
N2544      O2547   1.258       .  A
C2549      C2550   1.396       .  A
C2549      C2554   1.400       .  A
C2549      H2556   1.084       .  S
C2550      C2551   1.407       .  A
C2551      C2552   1.400       .  A
C2551      N2558   1.429       .  S
C2552      C2553   1.405       .  A
C2552      H2557   1.083       .  S
C2553      C2554   1.423       .  A
C2554      N2555   1.442       .  S
N2555      O2559   1.263       .  A
N2555      O2560   1.258       .  A
N2558      O2562   1.262       .  A
N2558      O2561   1.262       .  A
C2563      C2564   1.404       .  A
C2563      C2568   1.404       .  A
C2563      H2570   1.084       .  S
C2564      C2565   1.411       .  A
C2565      C2566   1.405       .  A
C2565      N2572   1.429       .  S
C2566      C2567   1.408       .  A
C2566      H2571   1.084       .  S
C2567      C2568   1.414       .  A
C2568      N3465   1.429   1_545  S
N2569      C3464   1.429       .  S
N2569      O2573   1.261       .  A
N2569      O2574   1.260       .  A
N2572      O2576   1.262       .  A
N2572      O2575   1.262       .  A
C2577      C2578   1.401       .  A
C2577      C2582   1.400       .  A
C2577      H2584   1.084       .  S
C2578      C2579   1.411       .  A
C2579      C2580   1.403       .  A
C2579      N2586   1.430       .  S
C2580      C2581   1.405       .  A
C2580      H2585   1.081       .  S
C2581      C2582   1.415       .  A
C2582      N2583   1.430       .  S
N2583      O2587   1.261       .  A
N2583      O2588   1.260       .  A
N2586      O2590   1.262       .  A
N2586      O2589   1.262       .  A
C2591      C2596   1.406       .  A
C2591      H2598   1.084       .  S
C2592      C2593   1.419       .  A
C2593      C2594   1.399       .  A
C2593      N2600   1.438       .  S
C2594      C2595   1.401       .  A
C2594      H2599   1.080       .  S
C2596      N2597   1.443       .  S
N2597      O2601   1.263       .  A
N2597      O2602   1.261       .  A
N2600      O2604   1.262       .  A
N2600      O2603   1.262       .  A
C2605      C2606   1.400       .  A
C2605      C2610   1.407       .  A
C2605      H2612   1.084       .  S
C2606      C2607   1.410       .  A
C2607      C2608   1.403       .  A
C2608      C2609   1.405       .  A
C2609      C2610   1.419       .  A
C2610      N2611   1.426       .  S
N2611      O2615   1.261   1_545  A
N2611      O2616   1.262       .  A
N2614      O2618   1.262       .  A
C2619      C2620   1.403       .  A
C2619      C2624   1.411   1_556  A
C2619      H2626   1.084   1_556  S
C2620      C2621   1.410       .  A
C2621      C2622   1.405       .  A
C2621      N2628   1.426       .  S
C2622      C2623   1.402       .  A
C2622      H2627   1.083       .  S
C2623      C2624   1.424   1_556  A
N2625      O2629   1.261       .  A
N2625      O2630   1.260       .  A
N2628      O2632   1.261       .  A
N2628      O2631   1.262       .  A
C2633      C2638   1.399       .  A
C2633      H2640   1.084       .  S
C2634      C2635   1.417       .  A
C2635      C2636   1.399       .  A
C2635      N2642   1.442       .  S
C2636      C2637   1.397       .  A
C2636      H2641   1.082       .  S
C2638      N3535   1.437   1_545  S
N2639      C3534   1.434       .  S
N2639      O2643   1.258   1_455  A
N2639      O2644   1.262       .  A
N2642      O2646   1.262       .  A
N2642      O2645   1.262       .  A
C2647      C2648   1.400       .  A
C2647      C2652   1.403       .  A
C2647      H3550   1.083       .  S
C2648      C2649   1.420       .  A
C2649      C2650   1.400       .  A
C2649      N2656   1.435       .  S
C2650      C2651   1.396       .  A
C2650      H2655   1.085       .  S
C2651      C2652   1.408       .  A
C2652      N2653   1.426       .  S
N2653      O3553   1.262       .  A
N2653      O2658   1.261       .  A
H2654      C3543   1.082   1_545  S
N2656      O2659   1.263       .  A
O2657      N3549   1.262       .  A
C2661      H2668   1.083   1_554  S
C2662      C2663   1.416       .  A
C2663      C2664   1.404       .  A
C2663      N2670   1.429       .  S
C2664      C2665   1.401       .  A
C2664      H2669   1.084       .  S
C2665      C2666   1.409       .  A
N2667      O2671   1.262       .  A
N2667      O2672   1.262       .  A
N2670      O3570   1.259       .  A
N2670      O2673   1.263       .  A
O2674      N3566   1.261       .  A
C2675      C2680   1.405       .  A
C2675      H2682   1.083       .  S
C2676      C2677   1.418       .  A
C2677      C2678   1.400       .  A
C2677      N2684   1.440       .  S
C2678      C2679   1.398       .  A
C2678      H2683   1.079       .  S
C2680      N2681   1.431       .  S
N2681      O2685   1.262       .  A
N2681      O2686   1.261   1_655  A
N2684      O2688   1.262       .  A
N2684      O2687   1.262       .  A
C2689      C2690   1.420       .  A
C2689      C3127   1.494       .  S
C2690      C3110   1.493       .  S
C2691      C3071   1.495       .  S
C2692      C2693   1.416   1_455  A
C2693      C3057   1.503       .  S
C2694      C3096   1.482       .  S
Fe2695     O2711   2.047       .  S
Fe2695     O2701   2.065       .  S
Fe2695     O2708   2.059       .  S
Fe2695     O2700   2.063       .  S
Fe2696     O2699   2.045       .  S
Fe2696     O2703   2.073       .  S
Fe2696     O2707   2.039       .  S
Fe2696     O2712   2.072       .  S
Fe2696     O2706   1.974       .  S
Fe2697     O2709   2.059       .  S
Fe2697     O2698   2.072       .  S
O2698      C2705   1.268       .  A
O2699      C2713   1.262       .  A
O2700      C2705   1.265       .  A
O2701      C2704   1.270       .  A
O2702      C2714   1.272       .  A
C2704      C2998   1.475       .  S
C2704      O2709   1.272       .  A
C2705      C3012   1.484       .  S
O2707      C2710   1.261       .  A
C2710      C3082   1.460       .  S
O2711      C2716   1.263       .  A
O2712      C2714   1.272       .  A
C2713      C2987   1.480       .  S
C2713      O2715   1.268       .  A
C2714      C3026   1.481       .  S
C2716      C3040   1.476       .  S
C2717      C2722   1.421       .  A
C2717      C3043   1.491       .  S
C2718      C3167   1.412       .  A
C2718      C2917   1.491       .  S
C2719      C3166   1.412   1_554  A
C2719      C2945   1.499       .  S
C2720      C2721   1.420   1_455  A
C2720      C2970   1.492       .  S
C2721      C3170   1.412   1_554  A
C2721      C2956   1.499       .  S
C2722      C3169   1.410       .  A
C2722      C2931   1.494       .  S
Fe2723     O2739   2.074       .  S
Fe2723     O2729   2.050       .  S
Fe2723     O2736   2.061       .  S
Fe2723     O2728   2.059       .  S
Fe2724     O2727   2.078       .  S
Fe2724     O2731   2.044       .  S
Fe2724     O2735   2.078       .  S
Fe2724     O2740   2.044       .  S
Fe2724     O2734   1.972       .  S
Fe2725     O2737   2.112   1_455  S
Fe2725     O2726   2.061   1_455  S
O2726      C2733   1.269       .  A
O2727      C2741   1.273       .  A
O2728      C2733   1.269       .  A
O2729      C2732   1.266       .  A
O2730      C2742   1.274       .  A
C2732      C2872   1.496       .  S
C2732      O2737   1.277       .  A
C2733      C2886   1.466       .  S
O2735      C2738   1.270       .  A
C2738      C3124   1.477       .  S
O2739      C2744   1.273   1_655  A
O2740      C2742   1.264       .  A
C2741      C2861   1.489       .  S
C2741      O2743   1.274       .  A
C2742      C2900   1.496       .  S
C2744      C2973   1.470       .  S
C2745      C2746   1.428       .  A
C2745      C2750   1.418       .  A
C2745      C2844   1.494       .  S
C2746      C3029   1.496       .  S
C2747      C2748   1.420       .  A
C2747      C2903   1.502       .  S
C2748      C2749   1.419       .  A
C2748      C2833   1.504       .  S
C2749      C2889   1.480       .  S
C2750      C3015   1.501       .  S
Fe2751     O2767   2.054       .  S
Fe2751     O2757   2.071       .  S
Fe2751     O2764   2.073       .  S
Fe2751     O2756   2.046       .  S
Fe2751     O2762   1.969       .  S
Fe2752     O2755   2.065       .  S
Fe2752     O2759   2.048       .  S
Fe2752     O2763   2.085       .  S
Fe2752     O2768   2.060       .  S
Fe2752     O2762   1.965       .  S
Fe2753     O2771   2.077       .  S
Fe2753     O2758   2.092       .  S
Fe2753     O2765   2.084       .  S
Fe2753     O2754   2.076       .  S
Fe2753     O2762   1.985       .  S
O2754      C2761   1.269       .  A
O2755      C2769   1.265       .  A
O2756      C2761   1.263       .  A
O2757      C2760   1.272       .  A
O2758      C2770   1.277       .  A
O2759      C2772   1.267       .  A
C2760      C2959   1.475       .  S
C2760      O2765   1.274       .  A
C2761      C3099   1.470       .  S
O2763      C2766   1.271       .  A
O2764      C2766   1.270       .  A
C2766      C2830   1.487       .  S
O2767      C2772   1.264       .  A
O2768      C2770   1.273       .  A
C2769      C2942   1.490       .  S
C2769      O2771   1.266       .  A
C2770      C3113   1.479       .  S
C2772      C2819   1.463       .  S
C2773      C2774   1.420       .  A
C2773      C2778   1.420       .  A
C2773      C2802   1.498       .  S
C2774      C2775   1.414       .  A
C2774      C3001   1.491       .  S
C2775      C2776   1.426       .  A
C2775      C2875   1.511       .  S
C2776      C2777   1.424       .  A
C2776      C2816   1.478       .  S
C2777      C2778   1.415       .  A
C2777      C2858   1.509       .  S
C2778      C2984   1.487       .  S
Fe2779     O2795   2.077       .  S
Fe2779     O2785   2.063       .  S
Fe2779     O2792   2.074       .  S
Fe2779     O2784   2.082       .  S
Fe2779     O2790   1.975       .  S
Fe2780     O2783   2.075       .  S
Fe2780     O2787   2.071       .  S
Fe2780     O2791   2.069       .  S
Fe2780     O2796   2.071       .  S
Fe2780     O2790   1.970       .  S
Fe2781     O2799   2.079       .  S
Fe2781     O2786   2.092       .  S
Fe2781     O2793   2.085       .  S
Fe2781     O2782   2.084       .  S
Fe2781     O2790   1.984       .  S
O2782      C2789   1.274       .  A
O2783      C2797   1.274       .  A
O2784      C2789   1.275       .  A
O2785      C2788   1.266       .  A
O2786      C2798   1.272       .  A
O2787      C2800   1.268       .  A
C2788      C2928   1.492       .  S
C2788      O2793   1.269       .  A
C2789      C3054   1.483       .  S
O2791      C2794   1.271       .  A
O2792      C2794   1.269       .  A
C2794      C2847   1.474       .  S
O2795      C2800   1.270       .  A
O2796      C2798   1.266       .  A
C2797      C2914   1.474       .  S
C2797      O2799   1.274       .  A
C2798      C3068   1.494       .  S
C2800      C2805   1.479       .  S
C2801      C2802   1.409       .  A
C2801      C2806   1.404       .  A
C2801      H2808   1.084       .  S
C2802      C2803   1.412       .  A
C2803      C2804   1.403       .  A
C2803      N2810   1.430       .  S
C2804      C2805   1.404       .  A
C2804      H2809   1.083       .  S
C2805      C2806   1.406       .  A
C2806      N2807   1.428       .  S
N2807      O2811   1.262       .  A
N2807      O2812   1.262       .  A
N2810      O2814   1.262       .  A
N2810      O2813   1.260       .  A
C2815      C2816   1.400       .  A
C2815      C2820   1.395       .  A
C2815      H2822   1.084       .  S
C2816      C2817   1.423       .  A
C2817      C2818   1.401       .  A
C2817      N2824   1.447       .  S
C2818      C2819   1.396       .  A
C2818      H2823   1.084       .  S
C2819      C2820   1.411       .  A
C2820      N2821   1.434       .  S
N2821      O2825   1.262       .  A
N2821      O2826   1.262       .  A
N2824      O2828   1.263       .  A
N2824      O2827   1.259       .  A
C2829      C2830   1.406       .  A
C2829      C2834   1.406       .  A
C2829      H2836   1.084       .  S
C2830      C2831   1.413       .  A
C2831      C2832   1.408       .  A
C2831      N2838   1.437       .  S
C2832      C2833   1.406       .  A
C2832      H2837   1.084       .  S
C2833      C2834   1.412       .  A
C2834      N2835   1.430       .  S
N2835      O2839   1.262       .  A
N2835      O2840   1.260       .  A
N2838      O2842   1.263       .  A
N2838      O2841   1.263       .  A
C2843      C2844   1.405       .  A
C2843      C2848   1.398       .  A
C2843      H2850   1.084       .  S
C2844      C2845   1.423       .  A
C2845      C2846   1.409       .  A
C2845      N2852   1.443       .  S
C2846      C2847   1.401       .  A
C2846      H2851   1.083       .  S
C2847      C2848   1.399       .  A
C2848      N2849   1.426       .  S
N2849      O2853   1.257       .  A
N2849      O2854   1.261       .  A
N2852      O2856   1.263       .  A
N2852      O2855   1.259       .  A
C2857      C2858   1.408       .  A
C2857      C2862   1.410       .  A
C2857      H2864   1.084       .  S
C2858      C2859   1.417       .  A
C2859      C2860   1.406       .  A
C2859      N2866   1.425       .  S
C2860      C2861   1.401       .  A
C2860      H2865   1.084       .  S
C2861      C2862   1.413       .  A
C2862      N2863   1.434       .  S
N2863      O2867   1.262       .  A
N2863      O2868   1.262       .  A
N2866      O2870   1.260       .  A
N2866      O2869   1.261       .  A
C2871      C2872   1.406       .  A
C2871      C2876   1.404       .  A
C2871      H2878   1.084       .  S
C2872      C2873   1.412       .  A
C2873      C2874   1.411       .  A
C2873      N2880   1.430       .  S
C2874      C2875   1.411       .  A
C2874      H2879   1.084       .  S
C2875      C2876   1.415       .  A
C2876      N2877   1.429       .  S
N2877      O2881   1.262       .  A
N2877      O2882   1.259       .  A
N2880      O2884   1.262       .  A
N2880      O2883   1.262       .  A
C2885      C2886   1.397       .  A
C2885      C2890   1.404       .  A
C2885      H2892   1.083       .  S
C2886      C2887   1.406       .  A
C2887      C2888   1.396       .  A
C2887      N2894   1.432       .  S
C2888      C2889   1.402       .  A
C2889      C2890   1.424       .  A
C2890      N2891   1.448       .  S
N2891      O2895   1.261       .  A
N2891      O2896   1.263       .  A
N2894      O2897   1.262       .  A
C2899      C2900   1.405       .  A
C2899      C2904   1.410       .  A
C2899      H2906   1.083       .  S
C2900      C2901   1.418       .  A
C2901      C2902   1.400       .  A
C2901      N2908   1.432       .  S
C2902      C2903   1.402       .  A
C2902      H2907   1.083       .  S
C2903      C2904   1.417       .  A
C2904      N2905   1.432       .  S
N2905      O2909   1.262       .  A
N2905      O2910   1.261       .  A
N2908      O2912   1.262       .  A
N2908      O2911   1.262       .  A
C2913      C2914   1.400       .  A
C2913      C2918   1.401       .  A
C2913      H3368   1.084       .  S
C2914      C2915   1.408       .  A
C2915      C2916   1.404       .  A
C2915      N2922   1.428       .  S
C2916      C2917   1.404       .  A
C2916      H2921   1.081       .  S
C2917      C2918   1.414       .  A
C2918      N3367   1.432       .  S
N2919      C3366   1.433   1_554  S
N2919      O2923   1.259       .  A
N2919      O2924   1.261       .  A
H2920      C3361   1.084       .  S
N2922      O2926   1.262       .  A
N2922      O2925   1.262       .  A
C2927      C2928   1.411       .  A
C2927      C2932   1.407       .  A
C2927      H2934   1.084       .  S
C2928      C2929   1.418       .  A
C2929      C2930   1.404       .  A
C2929      N3384   1.436       .  S
C2930      C2931   1.402       .  A
C2930      H3383   1.084       .  S
C2931      C2932   1.406       .  A
C2932      N2933   1.429       .  S
N2933      O2937   1.262       .  A
N2933      O2938   1.262       .  A
H2935      C3378   1.084       .  S
N2936      C3377   1.429   1_554  S
N2936      O2940   1.262       .  A
N2936      O2939   1.262       .  A
C2941      C2942   1.406       .  A
C2941      C2946   1.405       .  A
C2941      H2948   1.084       .  S
C2942      C2943   1.413       .  A
C2943      C2944   1.405   1_554  A
C2943      N2950   1.431   1_554  S
C2944      C2945   1.405   1_556  A
C2944      H2949   1.084       .  S
C2945      C2946   1.412       .  A
C2946      N2947   1.428       .  S
N2947      O2951   1.261       .  A
N2947      O2952   1.262       .  A
N2950      O2954   1.262       .  A
N2950      O2953   1.262       .  A
C2955      C2956   1.406       .  A
C2955      C2960   1.405       .  A
C2955      H2962   1.081       .  S
C2956      C2957   1.417       .  A
C2957      C2958   1.404       .  A
C2957      N2964   1.435   1_554  S
C2958      C2959   1.399       .  A
C2958      H2963   1.084       .  S
C2959      C2960   1.408       .  A
C2960      N2961   1.429       .  S
N2961      O2965   1.262       .  A
N2961      O2966   1.262       .  A
N2964      O2968   1.261       .  A
N2964      O2967   1.261       .  A
C2969      C2974   1.399       .  A
C2969      H2976   1.082       .  S
C2970      C2971   1.421   1_455  A
C2971      C2972   1.401       .  A
C2971      N2978   1.440       .  S
C2972      C2973   1.398   1_655  A
C2972      H2977   1.084       .  S
C2974      N2975   1.438       .  S
N2975      O2979   1.262       .  A
N2975      O2980   1.262       .  A
N2978      O2982   1.263       .  A
N2978      O2981   1.261       .  A
C2983      C2984   1.402       .  A
C2983      C2988   1.400       .  A
C2983      H2990   1.084       .  S
C2984      C2985   1.422       .  A
C2985      C2986   1.403       .  A
C2985      N2992   1.441       .  S
C2986      C2987   1.399       .  A
C2986      H2991   1.084       .  S
C2987      C2988   1.412       .  A
C2988      N2989   1.430       .  S
N2989      O2993   1.262       .  A
N2989      O2994   1.262       .  A
N2992      O2996   1.263       .  A
N2992      O2995   1.258       .  A
C2997      C2998   1.397       .  A
C2997      C3002   1.399       .  A
C2997      H3004   1.083       .  S
C2998      C2999   1.409       .  A
C2999      C3000   1.401       .  A
C2999      N3006   1.430       .  S
C3000      C3001   1.405       .  A
C3000      H3005   1.082       .  S
C3001      C3002   1.423       .  A
C3002      N3003   1.442       .  S
N3003      O3007   1.263       .  A
N3003      O3008   1.258       .  A
N3006      O3010   1.262       .  A
N3006      O3009   1.262       .  A
C3011      C3012   1.404       .  A
C3011      C3016   1.405       .  A
C3011      H3018   1.084       .  S
C3012      C3013   1.412       .  A
C3013      C3014   1.403       .  A
C3013      N3020   1.431       .  S
C3014      C3015   1.404       .  A
C3014      H3019   1.084       .  S
C3015      C3016   1.413       .  A
N3017      O3021   1.262   1_565  A
N3017      O3022   1.260       .  A
N3020      O3024   1.262       .  A
N3020      O3023   1.262       .  A
C3025      C3026   1.400       .  A
C3025      C3030   1.402       .  A
C3025      H3032   1.084       .  S
C3026      C3027   1.410       .  A
C3027      C3028   1.401       .  A
C3027      N3034   1.428       .  S
C3028      C3029   1.404       .  A
C3028      H3033   1.082       .  S
C3029      C3030   1.420       .  A
C3030      N3031   1.436       .  S
N3031      O3035   1.263       .  A
N3031      O3036   1.261       .  A
N3034      O3038   1.261       .  A
N3034      O3037   1.262       .  A
C3039      C3044   1.406       .  A
C3039      H3046   1.084       .  S
C3040      C3041   1.414       .  A
C3041      C3042   1.395       .  A
C3041      N3048   1.434       .  S
C3042      C3043   1.399       .  A
C3042      H3047   1.081       .  S
C3044      N3045   1.443       .  S
N3045      O3049   1.263       .  A
N3045      O3050   1.261       .  A
N3048      O3052   1.262       .  A
N3048      O3051   1.261       .  A
C3053      C3054   1.400       .  A
C3053      C3058   1.407       .  A
C3053      H3060   1.084       .  S
C3054      C3055   1.408       .  A
C3055      C3056   1.402       .  A
C3055      N3510   1.428       .  S
C3056      C3057   1.406       .  A
C3056      H3509   1.084       .  S
C3057      C3058   1.418       .  A
C3058      N3059   1.426       .  S
N3059      O3063   1.261       .  A
N3059      O3064   1.261       .  A
H3061      C3504   1.084       .  S
N3062      C3503   1.434   1_554  S
N3062      O3066   1.262       .  A
N3062      O3513   1.262       .  A
O3065      N3510   1.262       .  A
C3067      C3068   1.404       .  A
C3067      C3072   1.412       .  A
C3067      H3074   1.084       .  S
C3068      C3069   1.416       .  A
C3069      C3070   1.402       .  A
C3069      N3076   1.425       .  S
C3070      C3071   1.396       .  A
C3070      H3075   1.083       .  S
C3071      C3072   1.423       .  A
C3072      N3521   1.443       .  S
N3073      C3520   1.435       .  S
N3073      O3077   1.260       .  A
N3073      O3078   1.262       .  A
N3076      O3080   1.261       .  A
N3076      O3079   1.263       .  A
C3081      C3086   1.398       .  A
C3081      H3088   1.084   1_455  S
C3082      C3083   1.417       .  A
C3083      C3084   1.400       .  A
C3083      N3090   1.442       .  S
C3084      C3085   1.398       .  A
C3084      H3089   1.082       .  S
N3087      O3091   1.259   1_455  A
N3087      O3092   1.262       .  A
N3090      O3094   1.262       .  A
N3090      O3093   1.262       .  A
C3095      C3096   1.400       .  A
C3095      C3100   1.401       .  A
C3096      C3097   1.417       .  A
C3097      C3098   1.400       .  A
C3097      N3104   1.436   1_554  S
C3098      C3099   1.398       .  A
C3098      H3103   1.085   1_554  S
C3099      C3100   1.409       .  A
C3100      N3101   1.426       .  S
N3101      O3106   1.261       .  A
N3104      O3556   1.260       .  A
N3104      O3107   1.262       .  A
O3108      N3552   1.263       .  A
C3109      C3558   1.404       .  A
C3109      C3562   1.399       .  A
C3109      H3116   1.083       .  S
C3110      C3557   1.405       .  A
C3110      C3111   1.414       .  A
C3111      C3112   1.403       .  A
C3111      N3118   1.428   1_565  S
C3112      C3113   1.402       .  A
C3112      H3117   1.084       .  S
C3113      C3114   1.408       .  A
C3114      C3557   1.400       .  A
C3114      N3563   1.429   1_554  S
N3115      C3562   1.430       .  S
N3115      O3119   1.262       .  A
N3115      O3120   1.262       .  A
N3118      O3121   1.262   1_545  A
C3123      C3128   1.409       .  A
C3123      H3130   1.084       .  S
C3124      C3125   1.415       .  A
C3125      C3126   1.405       .  A
C3125      N3132   1.439       .  S
C3126      C3127   1.404       .  A
C3126      H3131   1.025       .  S
C3128      N3129   1.436   1_565  S
N3129      O3133   1.262       .  A
N3129      O3134   1.261       .  A
N3132      O3136   1.261       .  A
N3132      O3135   1.262       .  A
C3137      C3138   1.419       .  A
C3137      C3575   1.496       .  S
C3138      C3558   1.493       .  S
C3139      C3519   1.493       .  S
C3140      C3141   1.417   1_455  A
C3141      C3505   1.509       .  S
C3142      C3544   1.488       .  S
Fe3143     O3159   2.040       .  S
Fe3143     O3149   2.072       .  S
Fe3143     O3156   2.063       .  S
Fe3143     O3148   2.059       .  S
Fe3144     O3147   2.048       .  S
Fe3144     O3151   2.078       .  S
Fe3144     O3155   2.044       .  S
Fe3144     O3160   2.074       .  S
Fe3144     O3154   1.977       .  S
Fe3145     O3157   2.057   1_455  S
Fe3145     O3146   2.072   1_455  S
O3146      C3153   1.267       .  A
O3147      C3161   1.263       .  A
O3148      C3153   1.265       .  A
O3149      C3152   1.272       .  A
O3150      C3162   1.270       .  A
C3152      C3446   1.476       .  S
C3152      O3157   1.272       .  A
C3153      C3460   1.488       .  S
O3155      C3158   1.263       .  A
C3158      C3530   1.461       .  S
O3159      C3164   1.260       .  A
O3160      C3162   1.272       .  A
C3161      C3435   1.481       .  S
C3161      O3163   1.269       .  A
C3162      C3474   1.478       .  S
C3164      C3488   1.482       .  S
C3165      C3170   1.422       .  A
C3165      C3491   1.496       .  S
C3166      C3365   1.490       .  S
C3167      C3393   1.500       .  S
C3168      C3169   1.416   1_455  A
C3168      C3418   1.483       .  S
C3169      C3404   1.496       .  S
C3170      C3379   1.491       .  S
Fe3171     O3187   2.059       .  S
Fe3171     O3177   2.047       .  S
Fe3171     O3184   2.048       .  S
Fe3171     O3176   2.051       .  S
Fe3172     O3175   2.081       .  S
Fe3172     O3179   2.045       .  S
Fe3172     O3183   2.081       .  S
Fe3172     O3188   2.043       .  S
Fe3172     O3182   1.974       .  S
Fe3173     O3185   2.108   1_455  S
Fe3173     O3174   2.070   1_455  S
O3174      C3181   1.272       .  A
O3175      C3189   1.273       .  A
O3176      C3181   1.267       .  A
O3177      C3180   1.264       .  A
O3178      C3190   1.275       .  A
C3180      C3320   1.495       .  S
C3180      O3185   1.275       .  A
C3181      C3334   1.471       .  S
O3183      C3186   1.270       .  A
C3186      C3572   1.479       .  S
O3187      C3192   1.269   1_655  A
O3188      C3190   1.264       .  A
C3189      C3309   1.488       .  S
C3189      O3191   1.273       .  A
C3190      C3348   1.494       .  S
C3192      C3421   1.470       .  S
C3193      C3194   1.428       .  A
C3193      C3198   1.422       .  A
C3193      C3292   1.495       .  S
C3194      C3477   1.496       .  S
C3195      C3196   1.419       .  A
C3195      C3351   1.501       .  S
C3196      C3197   1.420       .  A
C3196      C3281   1.499       .  S
C3197      C3337   1.483       .  S
C3198      C3463   1.503       .  S
Fe3199     O3215   2.064       .  S
Fe3199     O3205   2.072       .  S
Fe3199     O3212   2.071       .  S
Fe3199     O3204   2.053       .  S
Fe3199     O3210   1.969       .  S
Fe3200     O3203   2.064       .  S
Fe3200     O3207   2.054       .  S
Fe3200     O3211   2.079       .  S
Fe3200     O3216   2.064       .  S
Fe3200     O3210   1.966       .  S
Fe3201     O3219   2.080       .  S
Fe3201     O3206   2.080       .  S
Fe3201     O3213   2.075       .  S
Fe3201     O3202   2.075       .  S
Fe3201     O3210   1.987       .  S
O3202      C3209   1.269       .  A
O3203      C3217   1.266       .  A
O3204      C3209   1.265       .  A
O3205      C3208   1.272       .  A
O3206      C3218   1.274       .  A
O3207      C3220   1.268       .  A
C3208      C3407   1.473       .  S
C3208      O3213   1.272       .  A
C3209      C3547   1.475       .  S
O3211      C3214   1.270       .  A
O3212      C3214   1.269       .  A
C3214      C3278   1.483       .  S
O3215      C3220   1.266       .  A
O3216      C3218   1.272       .  A
C3217      C3390   1.490       .  S
C3217      O3219   1.268       .  A
C3218      C3561   1.474       .  S
C3220      C3267   1.470       .  S
C3221      C3222   1.421       .  A
C3221      C3226   1.420       .  A
C3221      C3250   1.499       .  S
C3222      C3223   1.418       .  A
C3222      C3449   1.494       .  S
C3223      C3224   1.429       .  A
C3223      C3323   1.512       .  S
C3224      C3225   1.426       .  A
C3224      C3264   1.484       .  S
C3225      C3226   1.416       .  A
C3225      C3306   1.510       .  S
C3226      C3432   1.489       .  S
Fe3227     O3243   2.072       .  S
Fe3227     O3233   2.059       .  S
Fe3227     O3240   2.074       .  S
Fe3227     O3232   2.082       .  S
Fe3227     O3238   1.974       .  S
Fe3228     O3231   2.073       .  S
Fe3228     O3235   2.072       .  S
Fe3228     O3239   2.066       .  S
Fe3228     O3244   2.069       .  S
Fe3228     O3238   1.972       .  S
Fe3229     O3247   2.078       .  S
Fe3229     O3234   2.079       .  S
Fe3229     O3241   2.080       .  S
Fe3229     O3230   2.083       .  S
Fe3229     O3238   1.985       .  S
O3230      C3237   1.274       .  A
O3231      C3245   1.274       .  A
O3232      C3237   1.277       .  A
O3233      C3236   1.264       .  A
O3234      C3246   1.268       .  A
O3235      C3248   1.269       .  A
C3236      C3376   1.484       .  S
C3236      O3241   1.268       .  A
C3237      C3502   1.498       .  S
O3239      C3242   1.270       .  A
O3240      C3242   1.270       .  A
C3242      C3295   1.475       .  S
O3243      C3248   1.269       .  A
O3244      C3246   1.266       .  A
C3245      C3362   1.472       .  S
C3245      O3247   1.275       .  A
C3246      C3516   1.485       .  S
C3248      C3253   1.478       .  S
C3249      C3250   1.409       .  A
C3249      C3254   1.404       .  A
C3249      H3256   1.084       .  S
C3250      C3251   1.412       .  A
C3251      C3252   1.402       .  A
C3251      N3258   1.430       .  S
C3252      C3253   1.404       .  A
C3252      H3257   1.084       .  S
C3253      C3254   1.407       .  A
C3254      N3255   1.430       .  S
N3255      O3259   1.262       .  A
N3255      O3260   1.262       .  A
N3258      O3262   1.262       .  A
N3258      O3261   1.260       .  A
C3263      C3264   1.401       .  A
C3263      C3268   1.398       .  A
C3263      H3270   1.084       .  S
C3264      C3265   1.423       .  A
C3265      C3266   1.403       .  A
C3265      N3272   1.446       .  S
C3266      C3267   1.397       .  A
C3266      H3271   1.084       .  S
C3267      C3268   1.412       .  A
C3268      N3269   1.434       .  S
N3269      O3273   1.262       .  A
N3269      O3274   1.262       .  A
N3272      O3276   1.263       .  A
N3272      O3275   1.260       .  A
C3277      C3278   1.404       .  A
C3277      C3282   1.404       .  A
C3277      H3284   1.084       .  S
C3278      C3279   1.412       .  A
C3279      C3280   1.407       .  A
C3279      N3286   1.437       .  S
C3280      C3281   1.406       .  A
C3280      H3285   1.084       .  S
C3281      C3282   1.411       .  A
C3282      N3283   1.429       .  S
N3283      O3287   1.262       .  A
N3283      O3288   1.260       .  A
N3286      O3290   1.263       .  A
N3286      O3289   1.263       .  A
C3291      C3292   1.404       .  A
C3291      C3296   1.402       .  A
C3291      H3298   1.084       .  S
C3292      C3293   1.422       .  A
C3293      C3294   1.409       .  A
C3293      N3300   1.444       .  S
C3294      C3295   1.403       .  A
C3294      H3299   1.084       .  S
C3295      C3296   1.406       .  A
C3296      N3297   1.438       .  S
N3297      O3301   1.262       .  A
N3297      O3302   1.263       .  A
N3300      O3304   1.263       .  A
N3300      O3303   1.259       .  A
C3305      C3306   1.407       .  A
C3305      C3310   1.411       .  A
C3305      H3312   1.084       .  S
C3306      C3307   1.417       .  A
C3307      C3308   1.406       .  A
C3307      N3314   1.426       .  S
C3308      C3309   1.401       .  A
C3308      H3313   1.084       .  S
C3309      C3310   1.416       .  A
C3310      N3311   1.438       .  S
N3311      O3315   1.262       .  A
N3311      O3316   1.263       .  A
N3314      O3318   1.259       .  A
N3314      O3317   1.262       .  A
C3319      C3320   1.405       .  A
C3319      C3324   1.405       .  A
C3319      H3326   1.084       .  S
C3320      C3321   1.410       .  A
C3321      C3322   1.411       .  A
C3321      N3328   1.428       .  S
C3322      C3323   1.412       .  A
C3322      H3327   1.084       .  S
C3323      C3324   1.417       .  A
C3324      N3325   1.430       .  S
N3325      O3329   1.262       .  A
N3325      O3330   1.259       .  A
N3328      O3332   1.262       .  A
N3328      O3331   1.262       .  A
C3333      C3334   1.398       .  A
C3333      C3338   1.405       .  A
C3333      H3340   1.084       .  S
C3334      C3335   1.408       .  A
C3335      C3336   1.395       .  A
C3335      N3342   1.430       .  S
C3336      C3337   1.402       .  A
C3337      C3338   1.425       .  A
C3338      N3339   1.448       .  S
N3339      O3343   1.261       .  A
N3339      O3344   1.263       .  A
N3342      O3345   1.262       .  A
C3347      C3348   1.404       .  A
C3347      C3352   1.410       .  A
C3347      H3354   1.083       .  S
C3348      C3349   1.417       .  A
C3349      C3350   1.399       .  A
C3349      N3356   1.432       .  S
C3350      C3351   1.401       .  A
C3350      H3355   1.082       .  S
C3351      C3352   1.419       .  A
C3352      N3353   1.434       .  S
N3353      O3357   1.262       .  A
N3353      O3358   1.261       .  A
N3356      O3360   1.262       .  A
N3356      O3359   1.262       .  A
C3361      C3362   1.399       .  A
C3361      C3366   1.400       .  A
C3362      C3363   1.407       .  A
C3363      C3364   1.403       .  A
C3363      N3370   1.428       .  S
C3364      C3365   1.404       .  A
C3364      H3369   1.081       .  S
C3365      C3366   1.414       .  A
N3367      O3371   1.260       .  A
N3367      O3372   1.261       .  A
N3370      O3374   1.262       .  A
N3370      O3373   1.262       .  A
C3375      C3376   1.408       .  A
C3375      C3380   1.407       .  A
C3375      H3382   1.084       .  S
C3376      C3377   1.411       .  A
C3377      C3378   1.400   1_556  A
C3378      C3379   1.403   1_554  A
C3379      C3380   1.407       .  A
C3380      N3381   1.429       .  S
N3381      O3385   1.262       .  A
N3381      O3386   1.262       .  A
N3384      O3388   1.262       .  A
N3384      O3387   1.263       .  A
C3389      C3390   1.406       .  A
C3389      C3394   1.405       .  A
C3389      H3396   1.084       .  S
C3390      C3391   1.412       .  A
C3391      C3392   1.404       .  A
C3391      N3398   1.429       .  S
C3392      C3393   1.405       .  A
C3392      H3397   1.084       .  S
C3393      C3394   1.413       .  A
C3394      N3395   1.428       .  S
N3395      O3399   1.261       .  A
N3395      O3400   1.262       .  A
N3398      O3402   1.261       .  A
N3398      O3401   1.262       .  A
C3403      C3404   1.406       .  A
C3403      C3408   1.404       .  A
C3403      H3410   1.080       .  S
C3404      C3405   1.416       .  A
C3405      C3406   1.403       .  A
C3405      N3412   1.435       .  S
C3406      C3407   1.399       .  A
C3406      H3411   1.084       .  S
C3407      C3408   1.407       .  A
C3408      N3409   1.430       .  S
N3409      O3413   1.262       .  A
N3409      O3414   1.262       .  A
N3412      O3416   1.262       .  A
N3412      O3415   1.261       .  A
C3417      C3422   1.398       .  A
C3417      H3424   1.082       .  S
C3418      C3419   1.418   1_455  A
C3419      C3420   1.399       .  A
C3419      N3426   1.441       .  S
C3420      C3421   1.399   1_655  A
C3420      H3425   1.084       .  S
C3422      N3423   1.438       .  S
N3423      O3427   1.261       .  A
N3423      O3428   1.262       .  A
N3426      O3430   1.263       .  A
N3426      O3429   1.262       .  A
C3431      C3432   1.402       .  A
C3431      C3436   1.400       .  A
C3431      H3438   1.084       .  S
C3432      C3433   1.421       .  A
C3433      C3434   1.403       .  A
C3433      N3440   1.440       .  S
C3434      C3435   1.400       .  A
C3434      H3439   1.084       .  S
C3435      C3436   1.412       .  A
C3436      N3437   1.429       .  S
N3437      O3441   1.262       .  A
N3437      O3442   1.262       .  A
N3440      O3444   1.263       .  A
N3440      O3443   1.259       .  A
C3445      C3446   1.397       .  A
C3445      C3450   1.400       .  A
C3445      H3452   1.084       .  S
C3446      C3447   1.408       .  A
C3447      C3448   1.403       .  A
C3447      N3454   1.430       .  S
C3448      C3449   1.407       .  A
C3448      H3453   1.082       .  S
C3449      C3450   1.424       .  A
C3450      N3451   1.442       .  S
N3451      O3455   1.263       .  A
N3451      O3456   1.258       .  A
N3454      O3458   1.262       .  A
N3454      O3457   1.262       .  A
C3459      C3460   1.404       .  A
C3459      C3464   1.404       .  A
C3459      H3466   1.084       .  S
C3460      C3461   1.413       .  A
C3461      C3462   1.404       .  A
C3461      N3468   1.430       .  S
C3462      C3463   1.405       .  A
C3462      H3467   1.084       .  S
C3463      C3464   1.415       .  A
N3465      O3469   1.261   1_565  A
N3465      O3470   1.260       .  A
N3468      O3472   1.262       .  A
N3468      O3471   1.262       .  A
C3473      C3474   1.401       .  A
C3473      C3478   1.401       .  A
C3473      H3480   1.084       .  S
C3474      C3475   1.409       .  A
C3475      C3476   1.401       .  A
C3475      N3482   1.429       .  S
C3476      C3477   1.404       .  A
C3476      H3481   1.081       .  S
C3477      C3478   1.417       .  A
C3478      N3479   1.432       .  S
N3479      O3483   1.262       .  A
N3479      O3484   1.260       .  A
N3482      O3486   1.262       .  A
N3482      O3485   1.262       .  A
C3487      C3492   1.406       .  A
C3487      H3494   1.084       .  S
C3488      C3489   1.421       .  A
C3489      C3490   1.400       .  A
C3489      N3496   1.439       .  S
C3490      C3491   1.400       .  A
C3490      H3495   1.080       .  S
C3492      N3493   1.442       .  S
N3493      O3497   1.263       .  A
N3493      O3498   1.262       .  A
N3496      O3500   1.262       .  A
N3496      O3499   1.262       .  A
C3501      C3502   1.404       .  A
C3501      C3506   1.405       .  A
C3501      H3508   1.084       .  S
C3502      C3503   1.419       .  A
C3503      C3504   1.409   1_556  A
C3504      C3505   1.405   1_554  A
C3505      C3506   1.418       .  A
C3506      N3507   1.429       .  S
N3507      O3511   1.259       .  A
N3507      O3512   1.263       .  A
N3510      O3514   1.262       .  A
C3515      C3516   1.402       .  A
C3515      C3520   1.405   1_556  A
C3515      H3522   1.084   1_556  S
C3516      C3517   1.410       .  A
C3517      C3518   1.405       .  A
C3517      N3524   1.425       .  S
C3518      C3519   1.402       .  A
C3518      H3523   1.083       .  S
C3519      C3520   1.418   1_556  A
N3521      O3525   1.263       .  A
N3521      O3526   1.262       .  A
N3524      O3528   1.261       .  A
N3524      O3527   1.261       .  A
C3529      C3534   1.395       .  A
C3529      H3536   1.083       .  S
C3530      C3531   1.417       .  A
C3531      C3532   1.401       .  A
C3531      N3538   1.444       .  S
C3532      C3533   1.395       .  A
C3532      H3537   1.079       .  S
N3535      O3539   1.262   1_455  A
N3535      O3540   1.261       .  A
N3538      O3542   1.261       .  A
N3538      O3541   1.262       .  A
C3543      C3544   1.400       .  A
C3543      C3548   1.399       .  A
C3544      C3545   1.423       .  A
C3545      C3546   1.405       .  A
C3545      N3552   1.441       .  S
C3546      C3547   1.399       .  A
C3546      H3551   1.084       .  S
C3547      C3548   1.407       .  A
C3548      N3549   1.425       .  S
N3549      O3554   1.261       .  A
N3552      O3555   1.261       .  A
C3557      H3564   1.084   1_554  S
C3558      C3559   1.412       .  A
C3559      C3560   1.402       .  A
C3559      N3566   1.424   1_565  S
C3560      C3561   1.400       .  A
C3560      H3565   1.084       .  S
C3561      C3562   1.408       .  A
N3563      O3567   1.262       .  A
N3563      O3568   1.262       .  A
N3566      O3569   1.261       .  A
C3571      C3576   1.408       .  A
C3571      H3578   1.090       .  S
C3572      C3573   1.415       .  A
C3573      C3574   1.404       .  A
C3573      N3580   1.438       .  S
C3574      C3575   1.404       .  A
C3574      H3579   1.040       .  S
C3576      N3577   1.442   1_565  S
N3577      O3581   1.262       .  A
N3577      O3582   1.263   1_655  A
N3580      O3584   1.261       .  A
N3580      O3583   1.262       .  A
