geometry optimzed in LAMMPS
_audit_creation_date              2020-11-30 
_audit_creation_method            'lammps2cif' 
_symmetry_space_group_name_H-M    'P1' 
_symmetry_Int_Tables_number       1 
_symmetry_cell_setting            triclinic 
loop_ 
_symmetry_equiv_pos_as_xyz 
  x,y,z 
_cell_length_a                    29.59802956 
_cell_length_b                    29.584276764391436 
_cell_length_c                    29.595516054934162 
_cell_angle_alpha                 89.87922279989313 
_cell_angle_beta                  89.82216763478472 
_cell_angle_gamma                 90.05596780155976 
loop_ 
_atom_site_label 
_atom_site_type_symbol 
_atom_site_fract_x 
_atom_site_fract_y 
_atom_site_fract_z 
_atom_site_charge 
O1          O  0.08200127  0.00497213  0.52414291    -0.88700
C2          C  0.00216318  0.89685752  0.49770715     0.87400
Mg3        Mg  0.06541389  0.05570312  0.57264650     1.58100
O4          O  0.00028781  0.98244913  0.41490461    -0.88400
O5          O  0.10038614  0.00086961  0.45272861    -0.75700
C6          C  0.85198092  0.11439180  0.52763751     0.92400
O7          O  0.01567914  0.95252210  0.59198421    -0.75500
O8          O  0.87812357  0.11216364  0.56186198    -0.83000
Mg9        Mg  0.07641206  0.93583781  0.54637618     1.58000
C10         C  0.87280389  0.02218504  0.36401425     0.92400
O11         O  0.13846050  0.91153129  0.50709768    -0.81300
H12         H  0.03160941  0.02053058  0.36853174    -0.06600
C13         C  0.89570575  0.98840815  0.50721900     0.87300
O14         O  0.03776715  0.10257637  0.51728880    -0.75800
O15         O  0.03364342  0.92320329  0.49019227    -0.88600
O16         O  0.89684658  0.98682950  0.36925539    -0.81400
C17         C  0.98901889  0.87290214  0.36788459     0.92500
C18         C  0.14914099  0.89361967  0.46943073     0.92300
Mg19       Mg  0.92286626  0.06951418  0.45045066     1.58000
O20         O  0.86153466  0.09453235  0.49061874    -0.81300
O21         O  0.98262807  0.05334550  0.40355826    -0.75500
O22         O  0.02600538  0.88255260  0.38764076    -0.81400
O23         O  0.12219761  0.94779417  0.60609701    -0.83100
O24         O  0.97721780  0.12672306  0.60920414    -0.81400
C25         C  0.00569250  0.01840486  0.39427537     0.86800
O26         O  0.96725963  0.08334860  0.50622835    -0.88600
O27         O  0.91826596  0.00046770  0.47411980    -0.88700
O28         O  0.90026174  0.00709503  0.54553890    -0.75700
Mg29       Mg  0.05992521  0.94119604  0.42444610     1.58000
O30         O  0.95289273  0.89521926  0.37460540    -0.83100
H31         H  0.12847556  0.04554605  0.49634711    -0.06800
O32         O  0.99984787  0.02435513  0.58285175    -0.88400
H33         H  0.96656609  0.98521886  0.62693313    -0.06600
H34         H  0.99610206  0.13527444  0.47383654    -0.06800
C35         C  0.99319263  0.98771201  0.60195897     0.86700
C36         C  0.10496669  0.01795926  0.49171494     0.87300
C37         C  0.99974925  0.10845041  0.49840778     0.87400
H38         H  0.87226743  0.96058914  0.50372729    -0.06800
O39         O  0.96368789  0.90235934  0.47988264    -0.75800
Mg40       Mg  0.94137850  0.06715524  0.57288935     1.58000
H41         H  0.00699839  0.86950885  0.52148691    -0.06800
C42         C  0.12418684  0.97997619  0.63438553     0.92400
O43         O  0.04943272  0.11048225  0.62319369    -0.83100
C44         C  0.01457883  0.13485537  0.62927396     0.92400
O45         O  0.12348030  0.89691405  0.43495425    -0.83000
Mg46       Mg  0.93525712  0.94930180  0.42548377     1.58200
O47         O  0.10111633  0.01605830  0.62939509    -0.81400
O48         O  0.87522986  0.05540060  0.39123025    -0.83100
O49         O  0.01082169  0.52371005  0.08938400    -0.88700
C50         C  0.90354506  0.49664405  0.00803095     0.87400
Mg51       Mg  0.06351528  0.56983309  0.07004515     1.58100
O52         O  0.98677033  0.41131796  0.01254623    -0.88400
O53         O  0.00311907  0.45344214  0.11086978    -0.75700
C54         C  0.11759880  0.51661565  0.85750930     0.92400
O55         O  0.96113040  0.59112378  0.01981277    -0.75500
O56         O  0.11529320  0.55208651  0.88182898    -0.83000
Mg57       Mg  0.94230180  0.54812059  0.08165774     1.58000
C58         C  0.02842612  0.35516512  0.88716745     0.92400
O59         O  0.91384673  0.51297285  0.14498334    -0.81300
H60         H  0.02436996  0.36713173  0.04712404    -0.06600
C61         C  0.99488045  0.49766734  0.90404858     0.87300
O62         O  0.10916939  0.51248650  0.04509822    -0.75800
O63         O  0.92855287  0.49022619  0.04069648    -0.88600
O64         O  0.99378122  0.36003869  0.91249835    -0.81400
C65         C  0.87560438  0.36615466  0.00024682     0.92500
C66         C  0.89420610  0.47608488  0.15569776     0.92300
Mg67       Mg  0.07586463  0.44221789  0.93378655     1.58000
O68         O  0.10094658  0.47914536  0.87072422    -0.81300
O69         O  0.05793492  0.39877409  0.99613999    -0.75500
O70         O  0.88349412  0.38760146  0.03679966    -0.81400
O71         O  0.95658626  0.60918065  0.12493992    -0.83100
O72         O  0.13277492  0.60144733  0.97781194    -0.81400
C73         C  0.02265849  0.39115286  0.01959809     0.86800
O74         O  0.09014322  0.49949103  0.97492504    -0.88600
O75         O  0.00738013  0.46592916  0.92805314    -0.88700
O76         O  0.01269489  0.53649548  0.90710111    -0.75700
Mg77       Mg  0.94347751  0.42502581  0.07024476     1.58000
O78         O  0.90059539  0.37037554  0.96546378    -0.83100
H79         H  0.04911849  0.49648870  0.13783034    -0.06800
O80         O  0.03204053  0.57717811  0.00459991    -0.88400
H81         H  0.99638431  0.62302477  0.97024211    -0.06600
H82         H  0.14154434  0.46755473  0.00475334    -0.06800
C83         C  0.99697465  0.59851508  0.99738496     0.86700
C84         C  0.02191225  0.49187322  0.11398608     0.87300
C85         C  0.11508048  0.49255953  0.00761877     0.87400
H86         H  0.96706651  0.49262925  0.88101053    -0.06800
O87         O  0.90943054  0.47603120  0.97096480    -0.75800
Mg88       Mg  0.07305987  0.56470506  0.94594274     1.58000
H89         H  0.87693480  0.52152014  0.01060314    -0.06800
C90         C  0.98986663  0.63636740  0.12570198     0.92400
O91         O  0.11870341  0.61869456  0.04990971    -0.83100
C92         C  0.14139679  0.62361743  0.01365148     0.92400
O93         O  0.89793846  0.44068874  0.13134230    -0.83000
Mg94       Mg  0.95582618  0.41900850  0.94660483     1.58200
O95         O  0.02584370  0.62906864  0.10305521    -0.81400
O96         O  0.06142398  0.38259148  0.88846568    -0.83100
O97         O  0.43588725  0.54477797  0.45083332    -0.88700
C98         C  0.57124450  0.56304166  0.47310347     0.87400
Mg99       Mg  0.38848147  0.54096919  0.50663696     1.58100
O100        O  0.54214074  0.45354236  0.43693611    -0.88400
O101        O  0.46076053  0.50710406  0.39206357    -0.75700
C102        C  0.47735085  0.38938948  0.64502491     0.92400
O103        O  0.48328521  0.60085996  0.53042221    -0.75500
O104        O  0.45381472  0.42532091  0.64691871    -0.83000
Mg105      Mg  0.48085117  0.60159183  0.45243853     1.58000
C106        C  0.59791666  0.34165714  0.50797479     0.92400
O107        O  0.48001098  0.61211535  0.37497425    -0.81300
H108        H  0.51439001  0.41200063  0.39159166    -0.06600
C109        C  0.55780853  0.46993759  0.57316360     0.87300
O110        O  0.38832306  0.46313398  0.50247516    -0.75800
O111        O  0.53775101  0.55530720  0.44948495    -0.88600
O112        O  0.60917708  0.37532384  0.48322536    -0.81400
C113        C  0.64999695  0.48615241  0.39307424     0.92500
C114        C  0.50749970  0.60426749  0.34268877     0.92300
Mg115      Mg  0.50286734  0.39215377  0.53461102     1.58000
O116        O  0.49999206  0.37867960  0.61006282    -0.81300
O117        O  0.50185668  0.39480056  0.45688704    -0.75500
O118        O  0.61756198  0.51273717  0.38281827    -0.81400
O119        O  0.42067945  0.64994504  0.45521780    -0.83100
O120        O  0.37125628  0.48442509  0.60930108    -0.81400
C121        C  0.51975951  0.41980745  0.42684164     0.86800
O122        O  0.44763898  0.43986331  0.53973319    -0.88600
O123        O  0.54940485  0.44799053  0.53871349    -0.88700
O124        O  0.52666033  0.48724130  0.59712777    -0.75700
Mg125      Mg  0.53901484  0.51113874  0.39201833     1.58000
O126        O  0.64735172  0.45885263  0.42627047    -0.83100
H127        H  0.39414437  0.51508706  0.40690438    -0.06800
O128        O  0.44502670  0.54127487  0.55207931    -0.88400
H129        H  0.47268187  0.58417781  0.59623974    -0.06600
H130        H  0.40386991  0.39688340  0.51154859    -0.06800
C131        C  0.46681969  0.57569884  0.56122911     0.86700
C132        C  0.42864174  0.52238629  0.41634352     0.87300
C133        C  0.41297120  0.43165424  0.51809319     0.87400
H134        H  0.59265174  0.47575641  0.58235376    -0.06800
O135        O  0.59546883  0.53126911  0.48894281    -0.75800
Mg136      Mg  0.44901127  0.48463054  0.59784675     1.58000
H137        H  0.57977132  0.59765910  0.48106655    -0.06800
C138        C  0.38703810  0.65127103  0.48205376     0.92400
O139        O  0.33912908  0.53669730  0.56567769    -0.83100
C140        C  0.33800187  0.51012286  0.59952878     0.92400
O141        O  0.53558769  0.57174673  0.34430128    -0.83000
Mg142      Mg  0.59718186  0.45326880  0.48412707     1.58200
O143        O  0.37794550  0.61872715  0.50890400    -0.81400
O144        O  0.56195913  0.34208862  0.53172951    -0.83100
O145        O  0.56429128  0.96477362  0.03942508    -0.88700
C146        C  0.43045618  0.97350782  0.06975929     0.87400
Mg147      Mg  0.60279989  0.02573994  0.02830758     1.58100
O148        O  0.45734064  0.93787490  0.95970708    -0.88400
O149        O  0.54580652  0.90135255  0.00672316    -0.75700
C150        C  0.48297388  0.14954599  0.88475812     0.92400
O151        O  0.51384066  0.04121807  0.09737570    -0.75500
O152        O  0.50990638  0.15511046  0.91776739    -0.83000
Mg153      Mg  0.52513325  0.96397808  0.10072352     1.58000
C154        C  0.38256413  0.99174673  0.85288509     0.92400
O155        O  0.53390513  0.88662598  0.11520003    -0.81300
H156        H  0.48695604  0.89457519  0.91710350    -0.06600
C157        C  0.42244399  0.07003944  0.97276181     0.87300
O158        O  0.59628371  0.01846196  0.95113752    -0.75800
O159        O  0.46570448  0.95319042  0.06008345    -0.88600
O160        O  0.38169695  0.96560550  0.88699041    -0.81400
C161        C  0.35889177  0.88239990  0.00167919     0.92500
C162        C  0.50889537  0.85195731  0.10902436     0.92300
Mg163      Mg  0.47436463  0.03662630  0.89110349     1.58000
O164        O  0.46445895  0.11161727  0.87645547    -0.81300
O165        O  0.48722541  0.95986635  0.89570131    -0.75500
O166        O  0.39370922  0.87826344  0.02638318    -0.81400
O167        O  0.58892060  0.97594678  0.14211557    -0.83100
O168        O  0.60207813  0.12917797  0.96834451    -0.81400
C169        C  0.47723281  0.92909241  0.92403834     0.86800
O170        O  0.53254279  0.05058585  0.93190076    -0.88600
O171        O  0.43444944  0.03627369  0.95146440    -0.88700
O172        O  0.45087687  0.09880738  0.98680319    -0.75700
Mg173      Mg  0.46883764  0.89494168  0.01702263     1.58000
O174        O  0.35523711  0.91381020  0.97282918    -0.83100
H175        H  0.61027317  0.92471333  0.01026970    -0.06800
O176        O  0.54157180  0.06417419  0.03272792    -0.88400
H177        H  0.51415136  0.10693819  0.07726741    -0.06600
H178        H  0.57496154  0.02440030  0.88626622    -0.06800
C179        C  0.52312146  0.07244441  0.06926946     0.86700
C180        C  0.57516798  0.93018787  0.01881911     0.87300
C181        C  0.56816604  0.03144065  0.92146977     0.87400
H182        H  0.38708791  0.07437966  0.98092978    -0.06800
O183        O  0.40230056  0.98551397  0.03961167    -0.75800
Mg184      Mg  0.52706438  0.10842449  0.97649592     1.58000
H185        H  0.42378993  0.98200162  0.10465508    -0.06800
C186        C  0.61845318  0.00707993  0.13825668     0.92400
O187        O  0.64277526  0.08989162  0.01799265    -0.83100
C188        C  0.63771238  0.12356802  0.99181154     0.92400
O189        O  0.48027896  0.85015673  0.07725347    -0.83000
Mg190      Mg  0.39626386  0.97615772  0.96236020     1.58200
O191        O  0.61989975  0.03300597  0.10385939    -0.81400
O192        O  0.41142559  0.02341885  0.84913682    -0.83100
C193        C  0.50825556  0.63565784  0.30358841    -0.01600
C194        C  0.54939897  0.64734159  0.28312058    -0.09600
C195        C  0.55152961  0.68134928  0.25022513    -0.18500
C196        C  0.51212901  0.70438961  0.23611548     0.03900
C197        C  0.47010562  0.69048597  0.25512768     0.18100
C198        C  0.46865058  0.65710572  0.28907125    -0.19900
C199        C  0.42979654  0.71034611  0.24054269    -0.21100
C200        C  0.43025488  0.74396855  0.20763797    -0.19700
C201        C  0.47114715  0.75964132  0.18952531     0.19500
C202        C  0.51280875  0.74069057  0.20397013     0.01600
C203        C  0.55323566  0.75980776  0.18650857    -0.14400
C204        C  0.55213779  0.79612422  0.15601167    -0.12100
C205        C  0.51093728  0.81349263  0.14093366     0.01200
C206        C  0.47059436  0.79484587  0.15758626    -0.24300
H207        H  0.58046975  0.63128423  0.29386344     0.09200
H208        H  0.58440145  0.68880786  0.23643719     0.12700
H209        H  0.43662608  0.64793216  0.30444757     0.11500
H210        H  0.39763201  0.69968956  0.25458222     0.12700
H211        H  0.39841269  0.75846166  0.19693285     0.11700
H212        H  0.58613165  0.74818266  0.19662698     0.08800
H213        H  0.58362629  0.81036904  0.14376168     0.12000
H214        H  0.43857948  0.80885958  0.14667062     0.13900
C215        C  0.47605203  0.35655577  0.68256759    -0.01600
C216        C  0.47062481  0.37008417  0.72750148    -0.09600
C217        C  0.46903764  0.33790073  0.76225428    -0.18500
C218        C  0.47178262  0.29105706  0.75270839     0.03900
C219        C  0.47497592  0.27777041  0.70668643     0.18100
C220        C  0.47800614  0.31035372  0.67249956    -0.19900
C221        C  0.47496504  0.23202245  0.69486636    -0.21100
C222        C  0.47245936  0.19886893  0.72795660    -0.19700
C223        C  0.47150838  0.21068854  0.77367825     0.19500
C224        C  0.47160459  0.25687922  0.78691358     0.01600
C225        C  0.47326536  0.26664553  0.83371508    -0.14400
C226        C  0.47609001  0.23192588  0.86578978    -0.12100
C227        C  0.47569116  0.18665808  0.85228766     0.01200
C228        C  0.47225856  0.17635836  0.80627283    -0.24300
H229        H  0.46815911  0.40563389  0.73581334     0.09200
H230        H  0.46495479  0.35060418  0.79611929     0.12700
H231        H  0.48080838  0.29960349  0.63757037     0.11500
H232        H  0.47683271  0.22180295  0.65975214     0.12700
H233        H  0.47255052  0.16369446  0.71774829     0.11700
H234        H  0.47423530  0.30073545  0.84642711     0.08800
H235        H  0.47896882  0.24047212  0.90123305     0.12000
H236        H  0.47280961  0.14130159  0.79557012     0.13900
C237        C  0.67303465  0.15871107  0.99091645    -0.01600
C238        C  0.68516622  0.18018699  0.95058483    -0.09600
C239        C  0.71717690  0.21494730  0.95044374    -0.18500
C240        C  0.73719655  0.23014070  0.99112069     0.03900
C241        C  0.72348462  0.20907655  0.03214438     0.18100
C242        C  0.69241691  0.17318532  0.03155430    -0.19900
C243        C  0.74046881  0.22424695  0.07354118    -0.21100
C244        C  0.77132023  0.25968495  0.07511477    -0.19700
C245        C  0.78669031  0.28019557  0.03526586     0.19500
C246        C  0.77005974  0.26554290  0.99265329     0.01600
C247        C  0.78775670  0.28635540  0.95338714    -0.14400
C248        C  0.82098215  0.31964604  0.95626264    -0.12100
C249        C  0.83736065  0.33395044  0.99822707     0.01200
C250        C  0.81947636  0.31456313  0.03770121    -0.24300
H251        H  0.66997708  0.16985357  0.91899174     0.09200
H252        H  0.72485625  0.22977697  0.91802953     0.12700
H253        H  0.68210831  0.15736015  0.06305753     0.11500
H254        H  0.72971486  0.20865366  0.10496904     0.12700
H255        H  0.78382245  0.27062028  0.10770207     0.11700
H256        H  0.77751729  0.27688148  0.91980903     0.08800
H257        H  0.83432071  0.33395109  0.92524497     0.12000
H258        H  0.83238542  0.32492642  0.07034101     0.13900
C259        C  0.32311136  0.84806103  0.00455134    -0.01600
C260        C  0.29791076  0.83762366  0.96602339    -0.09600
C261        C  0.26800097  0.80132907  0.96620430    -0.18500
C262        C  0.26208329  0.77442727  0.00530457     0.03900
C263        C  0.28576804  0.78691710  0.04509327     0.18100
C264        C  0.31650282  0.82300484  0.04416427    -0.19900
C265        C  0.27901531  0.76298863  0.08537810    -0.21100
C266        C  0.24932026  0.72659405  0.08697303    -0.19700
C267        C  0.22684493  0.71238899  0.04796964     0.19500
C268        C  0.23354398  0.73566197  0.00636808     0.01600
C269        C  0.21205785  0.71859958  0.96743653    -0.14400
C270        C  0.18412927  0.68088407  0.96994066    -0.12100
C271        C  0.17605904  0.65924047  0.01129509     0.01200
C272        C  0.19764333  0.67501054  0.05022932    -0.24300
H273        H  0.30254330  0.85660519  0.93500361     0.09200
H274        H  0.24998363  0.79528566  0.93513277     0.12700
H275        H  0.33565150  0.83138302  0.07422125     0.11500
H276        H  0.29668182  0.77261709  0.11591984     0.12700
H277        H  0.24447044  0.70896547  0.11876756     0.11700
H278        H  0.21639003  0.73338351  0.93432694     0.08800
H279        H  0.16745900  0.66957265  0.93945099     0.12000
H280        H  0.19158353  0.65823712  0.08232563     0.13900
C281        C  0.14272792  0.51704496  0.81396058    -0.01600
C282        C  0.15059326  0.55702647  0.78970015    -0.09600
C283        C  0.17751350  0.55682244  0.75053343    -0.18500
C284        C  0.19854096  0.51658034  0.73518655     0.03900
C285        C  0.18947631  0.47609732  0.75953651     0.18100
C286        C  0.16129644  0.47658340  0.79770611    -0.19900
C287        C  0.20999325  0.43544616  0.74686461    -0.21100
C288        C  0.24121912  0.43437293  0.71180984    -0.19700
C289        C  0.25204755  0.47372905  0.68788360     0.19500
C290        C  0.22974513  0.51513895  0.69801087     0.01600
C291        C  0.24079283  0.55332356  0.67127593    -0.14400
C292        C  0.27427464  0.55092148  0.63775656    -0.12100
C293        C  0.29812478  0.51067599  0.63007623     0.01200
C294        C  0.28611377  0.47203955  0.65471904    -0.24300
H295        H  0.13625779  0.58863641  0.80128308     0.09200
H296        H  0.18249046  0.58887513  0.73386558     0.12700
H297        H  0.15566630  0.44539148  0.81621831     0.11500
H298        H  0.20295878  0.40445449  0.76519150     0.12700
H299        H  0.25760908  0.40260912  0.70385281     0.11700
H300        H  0.22460631  0.58561259  0.67594150     0.08800
H301        H  0.28288910  0.58127642  0.61907654     0.12000
H302        H  0.30399458  0.44064513  0.64861536     0.13900
C303        C  0.69075228  0.48462973  0.36382222    -0.01600
C304        C  0.70990685  0.44270881  0.35301195    -0.09600
C305        C  0.74522480  0.43945429  0.32173103    -0.18500
C306        C  0.76337710  0.47843041  0.30072869     0.03900
C307        C  0.74607215  0.52120637  0.31429368     0.18100
C308        C  0.70930828  0.52388984  0.34465319    -0.19900
C309        C  0.76534652  0.56094549  0.29712388    -0.21100
C310        C  0.80070896  0.55911853  0.26601159    -0.19700
C311        C  0.81654387  0.51751762  0.24986153     0.19500
C312        C  0.79783686  0.47652993  0.26665095     0.01600
C313        C  0.81317862  0.43555342  0.24728860    -0.14400
C314        C  0.84522341  0.43538303  0.21236694    -0.12100
C315        C  0.86384830  0.47582047  0.19602555     0.01200
C316        C  0.84982947  0.51676083  0.21575387    -0.24300
H317        H  0.69635986  0.41193431  0.36766457     0.09200
H318        H  0.75778999  0.40598217  0.31485105     0.12700
H319        H  0.69518795  0.55651557  0.35348739     0.11500
H320        H  0.75295812  0.59370172  0.30780391     0.12700
H321        H  0.81480940  0.59055083  0.25340282     0.11700
H322        H  0.79976315  0.40313889  0.25722541     0.08800
H323        H  0.85486692  0.40335787  0.19754794     0.12000
H324        H  0.86325865  0.54847063  0.20306987     0.13900
C325        C  0.81108053  0.14384328  0.52792952    -0.01600
C326        C  0.78728613  0.15490715  0.56746180    -0.09600
C327        C  0.74981093  0.18427906  0.56586452    -0.18500
C328        C  0.73582683  0.20454856  0.52464643     0.03900
C329        C  0.76092326  0.19378185  0.48511765     0.18100
C330        C  0.79715019  0.16332457  0.48700259    -0.19900
C331        C  0.75050495  0.21416166  0.44374551    -0.21100
C332        C  0.71615612  0.24589106  0.44068164    -0.19700
C333        C  0.69039592  0.25725821  0.47864048     0.19500
C334        C  0.69888745  0.23595843  0.52100546     0.01600
C335        C  0.67011792  0.24737393  0.55753388    -0.14400
C336        C  0.63574471  0.27975640  0.55246911    -0.12100
C337        C  0.62936440  0.30243974  0.51120443     0.01200
C338        C  0.65661075  0.29046553  0.47438584    -0.24300
H339        H  0.79753376  0.14071573  0.59959179     0.09200
H340        H  0.73303666  0.19140407  0.59746420     0.12700
H341        H  0.81577665  0.15597797  0.45625745     0.11500
H342        H  0.76971669  0.20614839  0.41356481     0.12700
H343        H  0.70968931  0.26169224  0.40827249     0.11700
H344        H  0.67358840  0.23191870  0.59038507     0.08800
H345        H  0.61527030  0.28846895  0.58157186     0.12000
H346        H  0.65178593  0.30749272  0.44227493     0.13900
C347        C  0.35611319  0.69053873  0.48047113    -0.01600
C348        C  0.34399861  0.71353228  0.51992507    -0.09600
C349        C  0.31339923  0.74960811  0.51843479    -0.18500
C350        C  0.29270357  0.76285181  0.47734394     0.03900
C351        C  0.30350121  0.73783901  0.43783245     0.18100
C352        C  0.33584572  0.70296719  0.43950130    -0.19900
C353        C  0.28117831  0.74709915  0.39716097    -0.21100
C354        C  0.24778686  0.78022477  0.39502317    -0.19700
C355        C  0.23700601  0.80619255  0.43306567     0.19500
C356        C  0.26050460  0.79886389  0.47433112     0.01600
C357        C  0.25072798  0.82790202  0.51082018    -0.14400
C358        C  0.21671537  0.86038611  0.50765304    -0.12100
C359        C  0.19076796  0.86515797  0.46822489     0.01200
C360        C  0.20220340  0.83877060  0.43045396    -0.24300
H361        H  0.35849206  0.70368716  0.55204048     0.09200
H362        H  0.30550629  0.76555778  0.55020249     0.12700
H363        H  0.34404205  0.68419797  0.40912290     0.11500
H364        H  0.28887442  0.72785289  0.36698712     0.12700
H365        H  0.23037164  0.78566276  0.36332101     0.11700
H366        H  0.26874946  0.82621377  0.54237099     0.08800
H367        H  0.20966179  0.88079626  0.53718389     0.12000
H368        H  0.18305354  0.84241828  0.39949941     0.13900
C369        C  0.34651168  0.98711912  0.81898698    -0.01600
C370        C  0.33101319  0.94450977  0.80551477    -0.09600
C371        C  0.29350624  0.94043517  0.77706837    -0.18500
C372        C  0.26940778  0.97915105  0.76256587     0.03900
C373        C  0.28443544  0.02208970  0.77808457     0.18100
C374        C  0.32324928  0.02571959  0.80489050    -0.19900
C375        C  0.26020090  0.06123142  0.76754546    -0.21100
C376        C  0.22159739  0.05889938  0.74121173    -0.19700
C377        C  0.20716066  0.01758261  0.72347051     0.19500
C378        C  0.23088613  0.97703966  0.73352117     0.01600
C379        C  0.21585171  0.93664047  0.71280945    -0.14400
C380        C  0.17990467  0.93708509  0.68211273    -0.12100
C381        C  0.15711604  0.97740980  0.67199040     0.01200
C382        C  0.17015829  0.01716267  0.69405587    -0.24300
H383        H  0.34789456  0.91419778  0.81724240     0.09200
H384        H  0.28343166  0.90668383  0.76807272     0.12700
H385        H  0.33415140  0.05862235  0.81672819     0.11500
H386        H  0.27108362  0.09391812  0.77991194     0.12700
H387        H  0.20362979  0.08987652  0.73360658     0.11700
H388        H  0.23235993  0.90469356  0.71814926     0.08800
H389        H  0.17073043  0.90588942  0.66531977     0.12000
H390        H  0.15326723  0.04867668  0.68619178     0.13900
C391        C  0.83857708  0.02248096  0.32731548    -0.01600
C392        C  0.82187008  0.06292921  0.30920281    -0.09600
C393        C  0.78670157  0.06258265  0.27750056    -0.18500
C394        C  0.76611264  0.02154875  0.26385029     0.03900
C395        C  0.78309657  0.98071458  0.28263875     0.18100
C396        C  0.81936549  0.98150916  0.31315716    -0.19900
C397        C  0.76307932  0.93924502  0.27184509    -0.21100
C398        C  0.72593053  0.93736467  0.24333364    -0.19700
C399        C  0.70840867  0.97679547  0.22402588     0.19500
C400        C  0.72874994  0.01942787  0.23315087     0.01600
C401        C  0.71090305  0.05782935  0.21087973    -0.14400
C402        C  0.67454073  0.05390776  0.18095790    -0.12100
C403        C  0.65401242  0.01195428  0.17305505     0.01200
C404        C  0.67099454  0.97361478  0.19502331    -0.24300
H405        H  0.83584944  0.09502689  0.31983955     0.09200
H406        H  0.77549278  0.09500190  0.26527933     0.12700
H407        H  0.83134035  0.95001136  0.32758334     0.11500
H408        H  0.77580601  0.90802426  0.28617149     0.12700
H409        H  0.71091261  0.90473719  0.23616054     0.11700
H410        H  0.72495778  0.09114873  0.21512899     0.08800
H411        H  0.66250632  0.08389393  0.16371532     0.12000
H412        H  0.65617246  0.94082093  0.18808410     0.13900
C413        C  0.98842980  0.67578127  0.15641656    -0.01600
C414        C  0.02814374  0.69991667  0.16542544    -0.09600
C415        C  0.02930678  0.73245121  0.19932168    -0.18500
C416        C  0.99049380  0.74214058  0.22543399     0.03900
C417        C  0.94941466  0.72015239  0.21399877     0.18100
C418        C  0.94884568  0.68686007  0.18019344    -0.19900
C419        C  0.90936637  0.73120182  0.23674453    -0.21100
C420        C  0.90930603  0.76379936  0.27059407    -0.19700
C421        C  0.94962309  0.78464409  0.28382817     0.19500
C422        C  0.99098605  0.77311355  0.26222477     0.01600
C423        C  0.03127625  0.79225442  0.27903594    -0.14400
C424        C  0.03031630  0.82316344  0.31437045    -0.12100
C425        C  0.98928706  0.83647212  0.33390375     0.01200
C426        C  0.94899218  0.81681356  0.31869955    -0.24300
H427        H  0.05909443  0.69260717  0.14724484     0.09200
H428        H  0.06110044  0.74954806  0.20415294     0.12700
H429        H  0.91770795  0.66894058  0.17305410     0.11500
H430        H  0.87781233  0.71484072  0.22799972     0.12700
H431        H  0.87766378  0.77213482  0.28711012     0.11700
H432        H  0.06419016  0.78355164  0.26603926     0.08800
H433        H  0.06197619  0.83761734  0.32562582     0.12000
H434        H  0.91713305  0.82645309  0.33408827     0.13900
C435        C  0.02787315  0.31921771  0.85221803    -0.01600
C436        C  0.98655374  0.29953722  0.84022638    -0.09600
C437        C  0.98317929  0.27126061  0.80283042    -0.18500
C438        C  0.02138816  0.26102224  0.77607328     0.03900
C439        C  0.06388363  0.27872581  0.78966753     0.18100
C440        C  0.06666820  0.30825220  0.82693854    -0.19900
C441        C  0.10313055  0.26678981  0.76590527    -0.21100
C442        C  0.10107400  0.23681173  0.72963927    -0.19700
C443        C  0.05949301  0.21956359  0.71499776     0.19500
C444        C  0.01893387  0.23290561  0.73699329     0.01600
C445        C  0.97752157  0.21769137  0.71882622    -0.14400
C446        C  0.97650643  0.18784441  0.68247277    -0.12100
C447        C  0.01655274  0.17181187  0.66302978     0.01200
C448        C  0.05806264  0.18861669  0.67887426    -0.24300
H449        H  0.95600394  0.30729632  0.85889712     0.09200
H450        H  0.95017409  0.25755253  0.79605839     0.12700
H451        H  0.09892891  0.32304235  0.83594068     0.11500
H452        H  0.13573630  0.27997851  0.77601567     0.12700
H453        H  0.13217295  0.22729436  0.71274550     0.11700
H454        H  0.94524496  0.22833815  0.73188364     0.08800
H455        H  0.94400263  0.17596386  0.67065126     0.12000
H456        H  0.08930829  0.17714181  0.66352074     0.13900
loop_ 
_geom_bond_atom_site_label_1 
_geom_bond_atom_site_label_2 
_geom_bond_distance 
_geom_bond_site_symmetry_2 
_ccdc_geom_bond_type 
O1           Mg3   2.135       .  S
O1           Mg9   2.153   1_545  S
O1           C36   1.235       .  S
C2           O15   1.234       .  S
C2           O39   1.267   1_455  A
C2           H41   1.081       .  S
Mg3          O32   2.170   1_455  S
Mg3          O47   2.306       .  S
Mg3          O43   2.257       .  S
Mg3          O14   2.297       .  S
O4          Mg46   2.181   1_455  S
O4          Mg29   2.166       .  S
O4           C25   1.235   1_565  S
O5           C36   1.268       .  A
O5          Mg29   2.293   1_545  S
C6            O8   1.278       .  A
C6           O20   1.275       .  A
C6          C325   1.492       .  S
O7           C35   1.271   1_455  A
O7           Mg9   2.299       .  S
O8          Mg40   2.322       .  S
Mg9          O15   2.126       .  S
Mg9          O23   2.259       .  S
Mg9          O11   2.288       .  S
C10          O48   1.274       .  A
C10          O16   1.275   1_545  A
C10         C391   1.488       .  S
O11          C18   1.274       .  A
H12          C25   1.081       .  S
C13          O27   1.236   1_565  S
C13          O28   1.270   1_565  A
C13          H38   1.081       .  S
O14          C37   1.270   1_455  A
O15         Mg29   2.159       .  S
O16         Mg46   2.302       .  S
C17          O30   1.273       .  A
C17          O22   1.275   1_655  A
C17         C425   1.476       .  S
C18          O45   1.277       .  A
C18         C359   1.493       .  S
Mg19         O26   2.153       .  S
Mg19         O27   2.162       .  S
Mg19         O20   2.291       .  S
Mg19         O21   2.296       .  S
Mg19         O48   2.292       .  S
O21          C25   1.269   1_655  A
O22         Mg29   2.284       .  S
O23          C42   1.271       .  A
O24          C44   1.280   1_655  A
O24         Mg40   2.323       .  S
O26         Mg40   2.167       .  S
O26          C37   1.235       .  S
O27         Mg46   2.150   1_545  S
O28         Mg40   2.302       .  S
Mg29         O45   2.315       .  S
O30         Mg46   2.260       .  S
H31          C36   1.081       .  S
O32         Mg40   2.166       .  S
O32          C35   1.237   1_545  S
H33          C35   1.081       .  S
H34          C37   1.081       .  S
O39         Mg46   2.287       .  S
C42          O47   1.276   1_565  A
C42         C381   1.484       .  S
O43          C44   1.272       .  A
C44         C447   1.484       .  S
O49         Mg51   2.147       .  S
O49         Mg57   2.166   1_455  S
O49          C84   1.235       .  S
C50          O63   1.234       .  S
C50          O87   1.268   1_554  A
C50          H89   1.081       .  S
Mg51         O80   2.163       .  S
Mg51         O95   2.296       .  S
Mg51         O91   2.258       .  S
Mg51         O62   2.292       .  S
O52         Mg94   2.170   1_554  S
O52         Mg77   2.171       .  S
O52          C73   1.237   1_655  S
O53          C84   1.269       .  A
O53         Mg77   2.298   1_455  S
C54          O56   1.276       .  A
C54          O68   1.273       .  A
C54         C281   1.486       .  S
O55          C83   1.268   1_554  A
O55         Mg57   2.294       .  S
O56         Mg88   2.300       .  S
Mg57         O63   2.140       .  S
Mg57         O71   2.257       .  S
Mg57         O59   2.299       .  S
C58          O96   1.270       .  A
C58          O64   1.277   1_455  A
C58         C435   1.485       .  S
O59          C66   1.275       .  A
H60          C73   1.081       .  S
C61          O75   1.234   1_655  S
C61          O76   1.267   1_655  A
C61          H86   1.081       .  S
O62          C85   1.269       .  A
O63         Mg77   2.163       .  S
O64         Mg94   2.308       .  S
C65          O78   1.272   1_554  A
C65          O70   1.277       .  A
C65         C249   1.480   1_554  S
C66          O93   1.277       .  A
C66         C315   1.492       .  S
Mg67         O74   2.131       .  S
Mg67         O75   2.153       .  S
Mg67         O68   2.282       .  S
Mg67         O69   2.307       .  S
Mg67         O96   2.260       .  S
O69          C73   1.272   1_556  A
O70         Mg77   2.317       .  S
O71          C90   1.271       .  A
O72          C92   1.275   1_556  A
O72         Mg88   2.282       .  S
O74         Mg88   2.171       .  S
O74          C85   1.236   1_556  S
O75         Mg94   2.132   1_455  S
O76         Mg88   2.286       .  S
Mg77         O93   2.300       .  S
O78         Mg94   2.245       .  S
H79          C84   1.081       .  S
O80         Mg88   2.148   1_554  S
O80          C83   1.234   1_454  S
H81          C83   1.081       .  S
H82          C85   1.081       .  S
O87         Mg94   2.292       .  S
C90          O95   1.275   1_655  A
C90         C413   1.481       .  S
O91          C92   1.272       .  A
C92         C271   1.471       .  S
O97         Mg99   2.166       .  S
O97        Mg105   2.144       .  S
O97         C132   1.237       .  S
C98         O111   1.236       .  S
C98         O135   1.272       .  A
C98         H137   1.081       .  S
Mg99        O128   2.150       .  S
Mg99        O143   2.323       .  S
Mg99        O139   2.277       .  S
Mg99        O110   2.306       .  S
O100       Mg142   2.149       .  S
O100       Mg125   2.161       .  S
O100        C121   1.235       .  S
O101        C132   1.274       .  A
O101       Mg125   2.319       .  S
C102        O104   1.273       .  A
C102        O116   1.272       .  A
C102        C215   1.475       .  S
O103        C131   1.271       .  A
O103       Mg105   2.309       .  S
O104       Mg136   2.280       .  S
Mg105       O111   2.173       .  S
Mg105       O119   2.287       .  S
Mg105       O107   2.313       .  S
C106        O144   1.274       .  A
C106        O112   1.278       .  A
C106        C337   1.491       .  S
O107        C114   1.275       .  A
H108        C121   1.081       .  S
C109        O123   1.236       .  S
C109        O124   1.270       .  A
C109        H134   1.081       .  S
O110        C133   1.271       .  A
O111       Mg125   2.147       .  S
O112       Mg142   2.334       .  S
C113        O126   1.273       .  A
C113        O118   1.279       .  A
C113        C303   1.483       .  S
C114        O141   1.273       .  A
C114        C193   1.482       .  S
Mg115       O122   2.166       .  S
Mg115       O123   2.154       .  S
Mg115       O116   2.269       .  S
Mg115       O117   2.302       .  S
Mg115       O144   2.294       .  S
O117        C121   1.270       .  A
O118       Mg125   2.340       .  S
O119        C138   1.272       .  A
O120        C140   1.278       .  A
O120       Mg136   2.325       .  S
O122       Mg136   2.173       .  S
O122        C133   1.235       .  S
O123       Mg142   2.149       .  S
O124       Mg136   2.300       .  S
Mg125       O141   2.283       .  S
O126       Mg142   2.269       .  S
H127        C132   1.081       .  S
O128       Mg136   2.156       .  S
O128        C131   1.236       .  S
H129        C131   1.081       .  S
H130        C133   1.081       .  S
O135       Mg142   2.313       .  S
C138        O143   1.275       .  A
C138        C347   1.480       .  S
O139        C140   1.273       .  A
C140        C293   1.485       .  S
O145       Mg147   2.157   1_565  S
O145       Mg153   2.150       .  S
O145        C180   1.235       .  S
C146        O159   1.238       .  S
C146        O183   1.273       .  A
C146        H185   1.081       .  S
Mg147       O176   2.144       .  S
Mg147       O191   2.305       .  S
Mg147       O187   2.255       .  S
Mg147       O158   2.303   1_554  S
O148       Mg190   2.135       .  S
O148       Mg173   2.145   1_556  S
O148        C169   1.235       .  S
O149        C180   1.270       .  A
O149       Mg173   2.305       .  S
C150        O152   1.274       .  A
C150        O164   1.273       .  A
C150        C227   1.474       .  S
O151        C179   1.271       .  A
O151       Mg153   2.312   1_545  S
O152       Mg184   2.277       .  S
Mg153       O159   2.158       .  S
Mg153       O167   2.282       .  S
Mg153       O155   2.342       .  S
C154        O192   1.272   1_565  A
C154        O160   1.270       .  A
C154        C369   1.473       .  S
O155        C162   1.278       .  A
H156        C169   1.081       .  S
C157        O171   1.234       .  S
C157        O172   1.268       .  A
C157        H182   1.081       .  S
O158        C181   1.271       .  A
O159       Mg173   2.147       .  S
O160       Mg190   2.295       .  S
C161        O174   1.266   1_554  A
C161        O166   1.271       .  A
C161        C259   1.469       .  S
C162        O189   1.269       .  A
C162        C205   1.479       .  S
Mg163       O170   2.146       .  S
Mg163       O171   2.139       .  S
Mg163       O164   2.279       .  S
Mg163       O165   2.307   1_545  S
Mg163       O192   2.276       .  S
O165        C169   1.271       .  A
O166       Mg173   2.293       .  S
O167        C186   1.274   1_565  A
O168        C188   1.275       .  A
O168       Mg184   2.315       .  S
O170       Mg184   2.169       .  S
O170        C181   1.236       .  S
O171       Mg190   2.130   1_545  S
O172       Mg184   2.292       .  S
Mg173       O189   2.246       .  S
O174       Mg190   2.228       .  S
H175        C180   1.081       .  S
O176       Mg184   2.160   1_554  S
O176        C179   1.235       .  S
H177        C179   1.081       .  S
H178        C181   1.081       .  S
O183       Mg190   2.311   1_554  S
C186        O191   1.274       .  A
C186        C403   1.482       .  S
O187        C188   1.270   1_554  A
C188        C237   1.474       .  S
C193        C194   1.401       .  A
C193        C198   1.402       .  A
C194        H207   1.084       .  S
C194        C195   1.400       .  A
C195        H208   1.076       .  S
C195        C196   1.415       .  A
C196        C202   1.433       .  A
C196        C197   1.424       .  A
C197        C199   1.399       .  A
C197        C198   1.408       .  A
C198        H209   1.084       .  S
C199        H210   1.084       .  S
C199        C200   1.391       .  A
C200        H211   1.084       .  S
C200        C201   1.400       .  A
C201        C202   1.422       .  A
C201        C206   1.405       .  A
C202        C203   1.419       .  A
C203        H212   1.076       .  S
C203        C204   1.402       .  A
C204        H213   1.084       .  S
C204        C205   1.398       .  A
C205        C206   1.402       .  A
C206        H214   1.085       .  S
C215        C216   1.398       .  A
C215        C220   1.401       .  A
C216        H229   1.083       .  S
C216        C217   1.401       .  A
C217        H230   1.078       .  S
C217        C218   1.417       .  A
C218        C224   1.429       .  A
C218        C219   1.421       .  A
C219        C221   1.399       .  A
C219        C220   1.399       .  A
C220        H231   1.085       .  S
C221        H232   1.084       .  S
C221        C222   1.386       .  A
C222        H233   1.084       .  S
C222        C223   1.399       .  A
C223        C224   1.422       .  A
C223        C228   1.400       .  A
C224        C225   1.417       .  A
C225        H234   1.078       .  S
C225        C226   1.400       .  A
C226        H235   1.083       .  S
C226        C227   1.398       .  A
C227        C228   1.400       .  A
C228        H236   1.085       .  S
C237        C238   1.397       .  A
C237        C242   1.402   1_556  A
C238        H251   1.083       .  S
C238        C239   1.398       .  A
C239        H252   1.078       .  S
C239        C240   1.417       .  A
C240        C246   1.430       .  A
C240        C241   1.421   1_556  A
C241        C243   1.400       .  A
C241        C242   1.404       .  A
C242        H253   1.085       .  S
C243        H254   1.084       .  S
C243        C244   1.391       .  A
C244        H255   1.084       .  S
C244        C245   1.400       .  A
C245        C246   1.424   1_554  A
C245        C250   1.407       .  A
C246        C247   1.413       .  A
C247        H256   1.077       .  S
C247        C248   1.394       .  A
C248        H257   1.083       .  S
C248        C249   1.401       .  A
C249        C250   1.402   1_556  A
C250        H258   1.085       .  S
C259        C260   1.399   1_554  A
C259        C264   1.399       .  A
C260        H273   1.083       .  S
C260        C261   1.391       .  A
C261        H274   1.080       .  S
C261        C262   1.413   1_556  A
C262        C268   1.424       .  A
C262        C263   1.422       .  A
C263        C265   1.399       .  A
C263        C264   1.402       .  A
C264        H275   1.085       .  S
C265        H276   1.084       .  S
C265        C266   1.390       .  A
C266        H277   1.084       .  S
C266        C267   1.399       .  A
C267        C268   1.423       .  A
C267        C272   1.404       .  A
C268        C269   1.412   1_554  A
C269        H278   1.079       .  S
C269        C270   1.390       .  A
C270        H279   1.083       .  S
C270        C271   1.400   1_556  A
C271        C272   1.400       .  A
C272        H280   1.085       .  S
C281        C282   1.401       .  A
C281        C286   1.403       .  A
C282        H295   1.083       .  S
C282        C283   1.405       .  A
C283        H296   1.078       .  S
C283        C284   1.419       .  A
C284        C290   1.435       .  A
C284        C285   1.421       .  A
C285        C287   1.399       .  A
C285        C286   1.402       .  A
C286        H297   1.085       .  S
C287        H298   1.084       .  S
C287        C288   1.388       .  A
C288        H299   1.084       .  S
C288        C289   1.398       .  A
C289        C290   1.424       .  A
C289        C294   1.406       .  A
C290        C291   1.415       .  A
C291        H300   1.078       .  S
C291        C292   1.402       .  A
C292        H301   1.083       .  S
C292        C293   1.403       .  A
C293        C294   1.400       .  A
C294        H302   1.085       .  S
C303        C304   1.401       .  A
C303        C308   1.402       .  A
C304        H317   1.084       .  S
C304        C305   1.398       .  A
C305        H318   1.078       .  S
C305        C306   1.414       .  A
C306        C312   1.433       .  A
C306        C307   1.424       .  A
C307        C309   1.400       .  A
C307        C308   1.411       .  A
C308        H319   1.084       .  S
C309        H320   1.084       .  S
C309        C310   1.393       .  A
C310        H321   1.084       .  S
C310        C311   1.402       .  A
C311        C312   1.421       .  A
C311        C316   1.409       .  A
C312        C313   1.417       .  A
C313        H322   1.078       .  S
C313        C314   1.401       .  A
C314        H323   1.083       .  S
C314        C315   1.401       .  A
C315        C316   1.408       .  A
C316        H324   1.084       .  S
C325        C326   1.403       .  A
C325        C330   1.404       .  A
C326        H339   1.083       .  S
C326        C327   1.411       .  A
C327        H340   1.079       .  S
C327        C328   1.421       .  A
C328        C334   1.440       .  A
C328        C329   1.421       .  A
C329        C331   1.399       .  A
C329        C330   1.402       .  A
C330        H341   1.085       .  S
C331        H342   1.084       .  S
C331        C332   1.387       .  A
C332        H343   1.084       .  S
C332        C333   1.398       .  A
C333        C334   1.425       .  A
C333        C338   1.408       .  A
C334        C335   1.416       .  A
C335        H344   1.079       .  S
C335        C336   1.406       .  A
C336        H345   1.083       .  S
C336        C337   1.406       .  A
C337        C338   1.400       .  A
C338        H346   1.085       .  S
C347        C348   1.399       .  A
C347        C352   1.403       .  A
C348        H361   1.083       .  S
C348        C349   1.401       .  A
C349        H362   1.078       .  S
C349        C350   1.418       .  A
C350        C356   1.433       .  A
C350        C351   1.421       .  A
C351        C353   1.402       .  A
C351        C352   1.409       .  A
C352        H363   1.085       .  S
C353        H364   1.084       .  S
C353        C354   1.394       .  A
C354        H365   1.084       .  S
C354        C355   1.401       .  A
C355        C356   1.424       .  A
C355        C360   1.414       .  A
C356        C357   1.411       .  A
C357        H366   1.078       .  S
C357        C358   1.396       .  A
C358        H367   1.083       .  S
C358        C359   1.406       .  A
C359        C360   1.405       .  A
C360        H368   1.084       .  S
C369        C370   1.400       .  A
C369        C374   1.398   1_565  A
C370        H383   1.084       .  S
C370        C371   1.401       .  A
C371        H384   1.076       .  S
C371        C372   1.416       .  A
C372        C378   1.431       .  A
C372        C373   1.423   1_565  A
C373        C375   1.398       .  A
C373        C374   1.402       .  A
C374        H385   1.084       .  S
C375        H386   1.084       .  S
C375        C376   1.387       .  A
C376        H387   1.084       .  S
C376        C377   1.398       .  A
C377        C378   1.422   1_545  A
C377        C382   1.401       .  A
C378        C379   1.416       .  A
C379        H388   1.076       .  S
C379        C380   1.401       .  A
C380        H389   1.084       .  S
C380        C381   1.403       .  A
C381        C382   1.401   1_565  A
C382        H390   1.084       .  S
C391        C392   1.401       .  A
C391        C396   1.404   1_545  A
C392        H405   1.083       .  S
C392        C393   1.404       .  A
C393        H406   1.077       .  S
C393        C394   1.418       .  A
C394        C400   1.435       .  A
C394        C395   1.422   1_545  A
C395        C397   1.400       .  A
C395        C396   1.405       .  A
C396        H407   1.085       .  S
C397        H408   1.084       .  S
C397        C398   1.389       .  A
C398        H409   1.084       .  S
C398        C399   1.399       .  A
C399        C400   1.424   1_565  A
C399        C404   1.406       .  A
C400        C401   1.416       .  A
C401        H410   1.077       .  S
C401        C402   1.401       .  A
C402        H411   1.084       .  S
C402        C403   1.402       .  A
C403        C404   1.401   1_545  A
C404        H412   1.085       .  S
C413        C414   1.401   1_655  A
C413        C418   1.404       .  A
C414        H427   1.083       .  S
C414        C415   1.392       .  A
C415        H428   1.078       .  S
C415        C416   1.413   1_455  A
C416        C422   1.425       .  A
C416        C417   1.421       .  A
C417        C419   1.401       .  A
C417        C418   1.406       .  A
C418        H429   1.084       .  S
C419        H430   1.084       .  S
C419        C420   1.392       .  A
C420        H431   1.084       .  S
C420        C421   1.400       .  A
C421        C422   1.422       .  A
C421        C426   1.405       .  A
C422        C423   1.412   1_655  A
C423        H432   1.078       .  S
C423        C424   1.391       .  A
C424        H433   1.083       .  S
C424        C425   1.401   1_455  A
C425        C426   1.402       .  A
C426        H434   1.085       .  S
C435        C436   1.401   1_455  A
C435        C440   1.407       .  A
C436        H449   1.083       .  S
C436        C437   1.393       .  A
C437        H450   1.077       .  S
C437        C438   1.412   1_655  A
C438        C444   1.428       .  A
C438        C439   1.422       .  A
C439        C441   1.402       .  A
C439        C440   1.411       .  A
C440        H451   1.084       .  S
C441        H452   1.084       .  S
C441        C442   1.395       .  A
C442        H453   1.084       .  S
C442        C443   1.402       .  A
C443        C444   1.421       .  A
C443        C448   1.410       .  A
C444        C445   1.414   1_455  A
C445        H454   1.077       .  S
C445        C446   1.394       .  A
C446        H455   1.083       .  S
C446        C447   1.400   1_655  A
C447        C448   1.407       .  A
C448        H456   1.084       .  S
