geometry optimzed in LAMMPS
_audit_creation_date              2020-11-30 
_audit_creation_method            'lammps2cif' 
_symmetry_space_group_name_H-M    'P1' 
_symmetry_Int_Tables_number       1 
_symmetry_cell_setting            triclinic 
loop_ 
_symmetry_equiv_pos_as_xyz 
  x,y,z 
_cell_length_a                    44.46167894 
_cell_length_b                    45.721072059039415 
_cell_length_c                    30.509482289690272 
_cell_angle_alpha                 90.76456541386173 
_cell_angle_beta                  92.31653198034712 
_cell_angle_gamma                 91.8491546022637 
loop_ 
_atom_site_label 
_atom_site_type_symbol 
_atom_site_fract_x 
_atom_site_fract_y 
_atom_site_fract_z 
_atom_site_charge 
O1          O  0.20188318  0.04163255  0.21159756    -0.74700
O2          O  0.20742593  0.48872372  0.30581382    -0.74700
O3          O  0.21376296  0.48593315  0.21824854    -0.74800
O4          O  0.19597532  0.04587681  0.29920743    -0.74800
O5          O  0.14711223  0.03383871  0.29074132    -0.74700
O6          O  0.16505613  0.47299790  0.20891293    -0.74700
O7          O  0.15895422  0.47609089  0.29744135    -0.74700
O8          O  0.15317138  0.02975607  0.20225541    -0.74800
Ni9        Ni  0.20707453  0.01562099  0.26073574     1.25400
Ni10       Ni  0.15347295  0.50296739  0.24857128     1.25400
C11         C  0.17659620  0.04459503  0.19072081     0.87500
C12         C  0.18464930  0.47311992  0.31764287     0.87400
C13         C  0.19268206  0.46976266  0.20028858     0.87500
C14         C  0.16853989  0.05021283  0.30757137     0.87600
C15         C  0.17714650  0.12871775  0.45041169     0.86200
C16         C  0.16664384  0.15912663  0.45906446    -0.54000
C17         C  0.17550891  0.16842491  0.99819306     0.09200
C18         C  0.19725748  0.14789352  0.02570558     0.20100
C19         C  0.21134398  0.13160694  0.45588372    -0.54700
C20         C  0.22232158  0.14017224  0.99314665     0.09300
C21         C  0.16766265  0.11010438  0.49068875    -0.54300
C22         C  0.17998060  0.11791859  0.03114956     0.09800
H23         H  0.15332038  0.17083490  0.43532978     0.14400
H24         H  0.20619923  0.15771775  0.05725082     0.00100
H25         H  0.22613693  0.12393348  0.43124275     0.14700
H26         H  0.15559136  0.08718823  0.98971916     0.14400
C27         C  0.21422199  0.39370804  0.05328047     0.86200
C28         C  0.19218639  0.36678246  0.05054078    -0.54000
C29         C  0.19216798  0.35245866  0.51105672     0.09200
C30         C  0.21477880  0.36533040  0.47770295     0.20100
C31         C  0.24441476  0.38078164  0.04370782    -0.54700
C32         C  0.24540941  0.36553768  0.50382411     0.09300
C33         C  0.20532795  0.41163649  0.01253451    -0.54300
C34         C  0.20708291  0.39825129  0.47234092     0.09800
H35         H  0.17655088  0.36088090  0.07529822     0.14400
H36         H  0.21495235  0.35313490  0.44600095     0.00100
H37         H  0.26399181  0.38572395  0.06416541     0.14700
H38         H  0.19901236  0.43479160  0.51393635     0.14400
O39         O  0.34612038  0.46356054  0.28629198    -0.74700
O40         O  0.33741439  0.02885036  0.21340087    -0.74700
O41         O  0.33434218  0.02173530  0.30097431    -0.74800
O42         O  0.34714418  0.47127195  0.19849771    -0.74800
O43         O  0.29721416  0.46506007  0.19384113    -0.74700
O44         O  0.28465872  0.01623161  0.29285407    -0.74700
O45         O  0.28755182  0.02244818  0.20516689    -0.74700
O46         O  0.29611274  0.45791690  0.28147403    -0.74800
Ni47       Ni  0.34585074  0.49677381  0.24975884     1.25400
Ni48       Ni  0.29235859  0.49053551  0.24368854     1.25400
C49         C  0.32182130  0.45005501  0.29641120     0.87500
C50         C  0.31199507  0.03650182  0.19715593     0.87400
C51         C  0.30799642  0.02772251  0.31355001     0.87500
C52         C  0.32322030  0.45955903  0.17965471     0.87600
C53         C  0.29323426  0.10914984  0.04848047     0.86200
C54         C  0.31381182  0.13515137  0.03854688    -0.54000
C55         C  0.30753381  0.14754189  0.50093724     0.09200
C56         C  0.27983283  0.13331316  0.47503077     0.20100
C57         C  0.26145203  0.12174311  0.04500244    -0.54700
C58         C  0.25396333  0.13557029  0.50820208     0.09300
C59         C  0.29354896  0.08767712  0.00894508    -0.54300
C60         C  0.28582099  0.09986847  0.47111360     0.09800
H61         H  0.33250429  0.14247970  0.06047178     0.14400
H62         H  0.27519449  0.14370515  0.44288472     0.00100
H63         H  0.24461592  0.11867233  0.06934038     0.14700
H64         H  0.29705145  0.06518001  0.51455850     0.14400
C65         C  0.31561855  0.37450483  0.44317701     0.86200
C66         C  0.33027959  0.34536040  0.44798588    -0.54000
C67         C  0.32430545  0.33218548  0.98754048     0.09200
C68         C  0.30286591  0.34931917  0.01755057     0.20100
C69         C  0.28186015  0.36773239  0.44732110    -0.54700
C70         C  0.27439267  0.35585554  0.98803775     0.09300
C71         C  0.32388144  0.39250300  0.48568964    -0.54300
C72         C  0.31851758  0.37988939  0.02620796     0.09800
H73         H  0.34626165  0.33734397  0.42498087     0.14400
H74         H  0.29683807  0.33644448  0.04608359     0.00100
H75         H  0.26497945  0.37666020  0.42498917     0.14700
H76         H  0.33021993  0.41583034  0.98356935     0.14400
O77         O  0.46448761  0.15793791  0.28889344    -0.74700
O78         O  0.02987083  0.16561636  0.21004411    -0.74700
O79         O  0.02612566  0.16877929  0.29844144    -0.74800
O80         O  0.46701573  0.15759150  0.19960986    -0.74800
O81         O  0.46375009  0.20600637  0.19940595    -0.74700
O82         O  0.02287322  0.21705920  0.29502560    -0.74700
O83         O  0.02660935  0.21404258  0.20664242    -0.74700
O84         O  0.46125546  0.20656465  0.28770461    -0.74800
Ni85       Ni  0.49642865  0.15923161  0.24926040     1.25400
Ni86       Ni  0.49283441  0.21110387  0.24840487     1.25400
C87         C  0.45320798  0.18158358  0.30225346     0.87500
C88         C  0.03880956  0.19026514  0.19552007     0.87400
C89         C  0.03396666  0.19448658  0.31356397     0.87500
C90         C  0.45521983  0.18076038  0.18360643     0.87600
C91         C  0.11884747  0.21057151  0.05714082     0.86200
C92         C  0.14585731  0.19181465  0.05172070    -0.54000
C93         C  0.15885590  0.19653875  0.51428070     0.09200
C94         C  0.14358696  0.22058861  0.48464727     0.20100
C95         C  0.13040084  0.24208997  0.05163299    -0.54700
C96         C  0.14368908  0.24894795  0.51462488     0.09300
C97         C  0.09766612  0.20480047  0.01551036    -0.54300
C98         C  0.10953884  0.21114185  0.47894087     0.09800
H99         H  0.15140560  0.17467347  0.07464117     0.14400
H100        H  0.15459391  0.22409517  0.45303698     0.00100
H101        H  0.12541134  0.25957120  0.07400763     0.14700
H102        H  0.07369277  0.20072253  0.52142934     0.14400
C103        C  0.37037371  0.18556163  0.44182864     0.86200
C104        C  0.34263723  0.16569937  0.44687154    -0.54000
C105        C  0.32823260  0.17116828  0.98395187     0.09200
C106        C  0.34387009  0.19546161  0.01460562     0.20100
C107        C  0.35921727  0.21622514  0.44628771    -0.54700
C108        C  0.34648908  0.22350869  0.98472497     0.09300
C109        C  0.39001939  0.18003522  0.48422628    -0.54300
C110        C  0.37647119  0.18436560  0.02264322     0.09800
H111        H  0.33631076  0.14769926  0.42490916     0.14400
H112        H  0.33152631  0.19921839  0.04493697     0.00100
H113        H  0.36461911  0.23267686  0.42285688     0.14700
H114        H  0.41303692  0.17531663  0.98177400     0.14400
O115        O  0.48015184  0.28218579  0.30191852    -0.74700
O116        O  0.03509738  0.28975761  0.20346055    -0.74700
O117        O  0.04030397  0.29558890  0.29190666    -0.74800
O118        O  0.47496182  0.27627874  0.21470967    -0.74800
O119        O  0.46621140  0.32392391  0.20840873    -0.74700
O120        O  0.03147659  0.34315975  0.28653979    -0.74700
O121        O  0.02640518  0.33720334  0.19776221    -0.74700
O122        O  0.47149101  0.32973300  0.29642543    -0.74800
Ni123      Ni  0.50783121  0.28358644  0.25430797     1.25400
Ni124      Ni  0.49853134  0.33452844  0.24804212     1.25400
C125        C  0.46592034  0.30475787  0.31397408     0.87500
C126        C  0.03934695  0.31422090  0.18399332     0.87400
C127        C  0.04651081  0.32228130  0.30259382     0.87500
C128        C  0.45970794  0.29713144  0.19904997     0.87600
C129        C  0.12426220  0.31714116  0.45185858     0.86200
C130        C  0.15281653  0.33510377  0.45970835    -0.54000
C131        C  0.16698418  0.33015426  0.99920017     0.09200
C132        C  0.15008038  0.30681083  0.02792556     0.20100
C133        C  0.13268582  0.28536358  0.45875925    -0.54700
C134        C  0.14586963  0.27851828  0.99761353     0.09300
C135        C  0.10427254  0.32370220  0.49135084    -0.54300
C136        C  0.11750565  0.31806893  0.03134900     0.09800
H137        H  0.16077513  0.35059476  0.43587859     0.14400
H138        H  0.16142225  0.30290560  0.06030340     0.00100
H139        H  0.12485849  0.26797037  0.43629576     0.14700
H140        H  0.08096095  0.32837707  0.98723872     0.14400
C141        C  0.38358336  0.28684818  0.04568103     0.86200
C142        C  0.35996716  0.31031979  0.03968611    -0.54000
C143        C  0.34305868  0.30710507  0.49946670     0.09200
C144        C  0.35341955  0.28172353  0.46933661     0.20100
C145        C  0.36587406  0.25835241  0.03946217    -0.54700
C146        C  0.35148519  0.25384520  0.49947182     0.09300
C147        C  0.40314718  0.29097107  0.00583077    -0.54300
C148        C  0.38773507  0.28930149  0.46387408     0.09800
H149        H  0.35977461  0.33014888  0.05927093     0.14400
H150        H  0.34011591  0.27957114  0.43781460     0.00100
H151        H  0.36787202  0.24114861  0.06292910     0.14700
H152        H  0.42682234  0.29582232  0.50647136     0.14400
C153        C  0.44718017  0.32040765  0.38624507    -0.06000
C154        C  0.44305620  0.30213983  0.34913020    -0.00100
C155        C  0.41682516  0.28320112  0.34657518    -0.08700
C156        C  0.39805044  0.28112531  0.38310672    -0.06000
C157        C  0.40388635  0.29744163  0.42214091    -0.00100
C158        C  0.42749977  0.31952563  0.42151652    -0.08600
C159        C  0.43239253  0.34391566  0.45564607     0.61800
H160        H  0.46592880  0.33615925  0.38747931     0.12500
H161        H  0.37857365  0.26655997  0.38051172     0.12500
C162        C  0.40639899  0.26550598  0.30603821     0.62000
F163        F  0.43624168  0.37036685  0.43474736    -0.23100
F164        F  0.46167952  0.33502959  0.98554546    -0.20500
F165        F  0.40836593  0.34662856  0.48249890    -0.20100
F166        F  0.42512787  0.26873906  0.27149174    -0.20200
F167        F  0.37805519  0.27412274  0.29228230    -0.20500
F168        F  0.40452240  0.23624635  0.31624801    -0.23200
C169        C  0.44332497  0.27011592  0.13424033    -0.06000
C170        C  0.43606540  0.29013721  0.16663741    -0.00100
C171        C  0.40915969  0.30540277  0.16322017    -0.08700
C172        C  0.39229322  0.30276141  0.12404273    -0.06000
C173        C  0.40183589  0.28619428  0.08824567    -0.00100
C174        C  0.42698643  0.26762631  0.09455637    -0.08600
C175        C  0.44056910  0.24769649  0.06023137     0.61800
H176        H  0.46343885  0.25756612  0.13895624     0.12500
H177        H  0.37135649  0.31382345  0.12233864     0.12500
C178        C  0.39696327  0.32455327  0.19913466     0.62000
F179        F  0.45236093  0.22333756  0.08007541    -0.23500
F180        F  0.46327406  0.26476007  0.53865282    -0.20500
F181        F  0.42038912  0.23735358  0.02788499    -0.20100
F182        F  0.39721221  0.35331250  0.18558925    -0.20200
F183        F  0.41306490  0.32317333  0.23864177    -0.20500
F184        F  0.36755792  0.31569258  0.20647696    -0.23200
C185        C  0.09563839  0.30972799  0.33314834    -0.06000
C186        C  0.07119624  0.32819529  0.33459877    -0.00100
C187        C  0.06967515  0.34901244  0.36903883    -0.08700
C188        C  0.08986344  0.34664584  0.40493130    -0.06000
C189        C  0.11038536  0.32391202  0.40729164    -0.00100
C190        C  0.11673779  0.30864686  0.36799626    -0.08600
C191        C  0.14498610  0.29174700  0.35999740     0.61800
H192        H  0.09806395  0.29571508  0.30459525     0.12500
H193        H  0.08857146  0.36156598  0.43254103     0.12500
C194        C  0.04598973  0.37220754  0.36968204     0.62000
F195        F  0.15572933  0.29908533  0.31948431    -0.23100
F196        F  0.13815865  0.26200958  0.35964077    -0.20500
F197        F  0.16804320  0.29806839  0.39064834    -0.20100
F198        F  0.01759744  0.35898758  0.36908683    -0.20200
F199        F  0.04854776  0.38991545  0.33354247    -0.20500
F200        F  0.04915050  0.38998139  0.40680065    -0.23200
C201        C  0.07788611  0.29508413  0.07681478    -0.06000
C202        C  0.09881370  0.31836667  0.07207941    -0.00100
C203        C  0.09786616  0.34216432  0.10265898    -0.08700
C204        C  0.07959692  0.33949614  0.13979925    -0.06000
C205        C  0.05923069  0.31559703  0.14476795    -0.00100
C206        C  0.05703542  0.29416715  0.11051441    -0.08600
C207        C  0.03026242  0.27284994  0.10587407     0.61800
H208        H  0.07692573  0.27791189  0.05248370     0.12500
H209        H  0.08027200  0.35700881  0.16416056     0.12500
C210        C  0.11393793  0.37142742  0.09673849     0.62000
F211        F  0.02967226  0.25718055  0.06667076    -0.23100
F212        F  0.00431058  0.28860645  0.10666222    -0.20500
F213        F  0.03067214  0.25304606  0.13948629    -0.20100
F214        F  0.12588686  0.37421426  0.05589330    -0.20200
F215        F  0.13661732  0.37508502  0.12875383    -0.20500
F216        F  0.09380147  0.39361297  0.10130778    -0.23200
C217        C  0.38554731  0.19288834  0.10563839    -0.06000
C218        C  0.39312201  0.17801811  0.06688684    -0.00100
C219        C  0.41790220  0.15868026  0.07138549    -0.08700
C220        C  0.43740148  0.16049161  0.10940037    -0.06000
C221        C  0.43202828  0.17856442  0.14556706    -0.00100
C222        C  0.40431283  0.19336895  0.14474691    -0.08600
C223        C  0.39367337  0.20815460  0.18591826     0.61800
H224        H  0.36471721  0.20428049  0.10554367     0.12500
H225        H  0.45693449  0.14698414  0.11109434     0.12500
C226        C  0.42385109  0.13397693  0.03933730     0.62000
F227        F  0.36478416  0.21822697  0.18008438    -0.23100
F228        F  0.41246967  0.23173072  0.19780934    -0.20500
F229        F  0.39366241  0.18835679  0.21979298    -0.20100
F230        F  0.44843779  0.14149246  0.01500170    -0.20200
F231        F  0.40041329  0.12637431  0.51500806    -0.20500
F232        F  0.43036478  0.10887253  0.06223926    -0.23200
C233        C  0.40303192  0.16867046  0.32881993    -0.06000
C234        C  0.43207889  0.18075804  0.33716754    -0.00100
C235        C  0.43958646  0.19568398  0.37689077    -0.08700
C236        C  0.41746850  0.19844856  0.40688419    -0.06000
C237        C  0.38913295  0.18399085  0.40144724    -0.00100
C238        C  0.38049705  0.17160267  0.35954811    -0.08600
C239        C  0.34804106  0.16673691  0.34273527     0.61800
H240        H  0.39745490  0.15883880  0.29687296     0.12500
H241        H  0.42257278  0.21172494  0.43606001     0.12500
C242        C  0.47116435  0.20759441  0.38881905     0.62000
F243        F  0.34515120  0.17420984  0.29893739    -0.23100
F244        F  0.32859922  0.18408828  0.36485857    -0.20500
F245        F  0.33940335  0.13762021  0.34631088    -0.20100
F246        F  0.47849737  0.23071355  0.36218849    -0.20200
F247        F  0.49116501  0.18543193  0.38401495    -0.20500
F248        F  0.47411203  0.21752544  0.43191338    -0.23200
C249        C  0.05146917  0.22334199  0.38143462    -0.06000
C250        C  0.05478614  0.19857794  0.35438421    -0.00100
C251        C  0.07674247  0.17834448  0.36829410    -0.08700
C252        C  0.09332847  0.18313432  0.40884837    -0.06000
C253        C  0.09066422  0.20827828  0.43556736    -0.00100
C254        C  0.06808422  0.22823741  0.42168933    -0.08600
C255        C  0.05870460  0.25422572  0.44845882     0.61800
H256        H  0.03471334  0.23893929  0.37173673     0.12500
H257        H  0.10713429  0.16594883  0.42104034     0.12500
C258        C  0.08323908  0.15183054  0.34030102     0.62000
F259        F  0.05908655  0.27907655  0.42311136    -0.23100
F260        F  0.07719254  0.25953167  0.48473873    -0.20500
F261        F  0.03104653  0.24950013  0.95814876    -0.20100
F262        F  0.08756237  0.16019368  0.29752594    -0.20200
F263        F  0.05948635  0.13161295  0.34122668    -0.20500
F264        F  0.10902684  0.13842683  0.35518922    -0.23200
C265        C  0.08470612  0.21452899  0.17003446    -0.06000
C266        C  0.06322379  0.19150132  0.16492544    -0.00100
C267        C  0.06512637  0.17092581  0.13017721    -0.08700
C268        C  0.08565511  0.17699925  0.09794355    -0.06000
C269        C  0.10381363  0.20276006  0.09931211    -0.00100
C270        C  0.10692346  0.21889527  0.13942325    -0.08600
C271        C  0.13453501  0.23742419  0.15436542     0.61800
H272        H  0.08488071  0.22843264  0.19915244     0.12500
H273        H  0.08667422  0.16227891  0.06999447     0.12500
C274        C  0.04478189  0.14361188  0.12546817     0.62000
F275        F  0.14322985  0.23003207  0.19678075    -0.23100
F276        F  0.12777271  0.26673295  0.15417011    -0.20500
F277        F  0.15898813  0.23280087  0.12888859    -0.20100
F278        F  0.01500461  0.15131856  0.12489638    -0.20200
F279        F  0.05058994  0.12516581  0.16013851    -0.20500
F280        F  0.04924855  0.12814743  0.08707356    -0.23200
C281        C  0.31063638  0.41101821  0.14476226    -0.06000
C282        C  0.32529509  0.43842563  0.14200658    -0.00100
C283        C  0.34160618  0.44451395  0.10428804    -0.08700
C284        C  0.34095478  0.42359530  0.06968772    -0.06000
C285        C  0.32421787  0.39658559  0.07041644    -0.00100
C286        C  0.31219396  0.38891462  0.11210406    -0.08600
C287        C  0.30394098  0.35788767  0.12646064     0.61800
H288        H  0.29841189  0.40654399  0.17387817     0.12500
H289        H  0.35413101  0.42861761  0.04174639     0.12500
C290        C  0.35822319  0.47373149  0.09943019     0.62000
F291        F  0.30513315  0.35586215  0.17176963    -0.23100
F292        F  0.32434544  0.33853900  0.11175078    -0.20500
F293        F  0.27520047  0.34906159  0.11221180    -0.20100
F294        F  0.38213602  0.47615863  0.12978973    -0.20200
F295        F  0.33874664  0.49616342  0.10619586    -0.20500
F296        F  0.36947407  0.47696084  0.05805485    -0.23200
C297        C  0.34548249  0.43038895  0.36266601    -0.06000
C298        C  0.32372867  0.42661195  0.32852728    -0.00100
C299        C  0.30490270  0.40108188  0.32656944    -0.08700
C300        C  0.30537881  0.38260615  0.36279267    -0.06000
C301        C  0.32367689  0.38929872  0.40058372    -0.00100
C302        C  0.34718217  0.41095729  0.39737709    -0.08600
C303        C  0.37535188  0.41390745  0.42706020     0.61800
H304        H  0.36153728  0.44876272  0.36231281     0.12500
H305        H  0.29013744  0.36366693  0.36273886     0.12500
C306        C  0.28500862  0.39301812  0.28647685     0.62000
F307        F  0.40037513  0.41535472  0.40151126    -0.23100
F308        F  0.37872431  0.39046579  0.45441429    -0.20500
F309        F  0.37482835  0.43941305  0.45187440    -0.20100
F310        F  0.30188930  0.39516379  0.24964967    -0.20200
F311        F  0.26109782  0.41153823  0.28297160    -0.20500
F312        F  0.27346703  0.36458411  0.28817939    -0.23200
C313        C  0.27562185  0.04494904  0.37264317    -0.06000
C314        C  0.30358297  0.04736106  0.35309201    -0.00100
C315        C  0.32575458  0.06717734  0.37290433    -0.08700
C316        C  0.31820777  0.08463794  0.40961651    -0.06000
C317        C  0.29001565  0.08230838  0.42897393    -0.00100
C318        C  0.26913491  0.06032810  0.41134464    -0.08600
C319        C  0.24126936  0.05055499  0.43457215     0.61800
H320        H  0.25911226  0.02923730  0.35862719     0.12500
H321        H  0.33516810  0.09904894  0.42540261     0.12500
C322        C  0.35750233  0.06961980  0.35649676     0.62000
F323        F  0.22502841  0.02815015  0.41248810    -0.23100
F324        F  0.22231667  0.07339396  0.43832626    -0.20500
F325        F  0.24990279  0.04021779  0.47524339    -0.20100
F326        F  0.35658775  0.07680728  0.31257743    -0.20200
F327        F  0.37146613  0.04324935  0.36209707    -0.20500
F328        F  0.37493103  0.09091543  0.37917873    -0.23200
C329        C  0.33150743  0.05912587  0.13207764    -0.06000
C330        C  0.31126820  0.06022852  0.16562682    -0.00100
C331        C  0.29029533  0.08261751  0.16653395    -0.08700
C332        C  0.28648556  0.09972696  0.12909919    -0.06000
C333        C  0.30310662  0.09496820  0.09134874    -0.00100
C334        C  0.32854722  0.07655461  0.09508419    -0.08600
C335        C  0.35296416  0.07269321  0.06195711     0.61800
H336        H  0.34947530  0.04366792  0.13413185     0.12500
H337        H  0.27046496  0.11690148  0.12965347     0.12500
C338        C  0.27341493  0.08934222  0.20752732     0.62000
F339        F  0.35015868  0.04481166  0.04375873    -0.23100
F340        F  0.38087205  0.07570929  0.08355473    -0.20500
F341        F  0.35266333  0.09252723  0.02850181    -0.20100
F342        F  0.29375983  0.09387796  0.24263751    -0.20200
F343        F  0.25415133  0.06634465  0.21676988    -0.20500
F344        F  0.25652633  0.11411668  0.20296457    -0.23200
C345        C  0.21730559  0.45342174  0.37847563    -0.06000
C346        C  0.18916338  0.45195430  0.35555845    -0.00100
C347        C  0.16743551  0.43078306  0.36994685    -0.08700
C348        C  0.17468977  0.41298645  0.40676981    -0.06000
C349        C  0.20284836  0.41488624  0.42973583    -0.00100
C350        C  0.22449824  0.43586437  0.41486984    -0.08600
C351        C  0.25569558  0.44165667  0.43561950     0.61800
H352        H  0.23434618  0.46913681  0.36835357     0.12500
H353        H  0.15771209  0.39820230  0.41911601     0.12500
C354        C  0.13655417  0.42680952  0.34724818     0.62000
F355        F  0.27688844  0.43751375  0.40443575    -0.23100
F356        F  0.26222265  0.42378513  0.47013485    -0.20500
F357        F  0.25833988  0.47035773  0.45050003    -0.20100
F358        F  0.13957294  0.42012981  0.30336219    -0.20200
F359        F  0.12077447  0.45220001  0.35137982    -0.20500
F360        F  0.11972812  0.40428568  0.36513317    -0.23200
C361        C  0.20171059  0.40060533  0.13347440    -0.06000
C362        C  0.21510479  0.41223161  0.09593019    -0.00100
C363        C  0.22682660  0.44186951  0.09890734    -0.08700
C364        C  0.21758917  0.45976863  0.13288595    -0.06000
C365        C  0.20070388  0.44873917  0.16668327    -0.00100
C366        C  0.19409260  0.41851884  0.16886184    -0.08600
C367        C  0.17941000  0.40545369  0.20848914     0.61800
H368        H  0.19703035  0.37739742  0.13534274     0.12500
H369        H  0.22384309  0.48292787  0.13333181     0.12500
C370        C  0.24894843  0.45630830  0.06844400     0.62000
F371        F  0.17776263  0.37518541  0.20627059    -0.23100
F372        F  0.15047944  0.41535584  0.21104832    -0.20500
F373        F  0.19597041  0.41369392  0.24627014    -0.20100
F374        F  0.23365357  0.47140731  0.03612676    -0.20200
F375        F  0.26732347  0.43650045  0.05002402    -0.20500
F376        F  0.26788989  0.47619016  0.09162861    -0.23200
C377        C  0.14315882  0.09477317  0.40343204    -0.06000
C378        C  0.16643870  0.11645137  0.40540420    -0.00100
C379        C  0.18245677  0.12171627  0.36659835    -0.08700
C380        C  0.18109095  0.09993872  0.33403476    -0.06000
C381        C  0.16253858  0.07477372  0.33710587    -0.00100
C382        C  0.14150144  0.07302058  0.37053502    -0.08600
C383        C  0.11911712  0.04743416  0.37369460     0.61800
H384        H  0.12724381  0.09389466  0.42921292     0.12500
H385        H  0.19570431  0.10212719  0.30660543     0.12500
C386        C  0.20167909  0.14892832  0.35729217     0.62000
F387        F  0.10168258  0.04986295  0.41008382    -0.23100
F388        F  0.13434688  0.02158735  0.37696811    -0.20500
F389        F  0.09993845  0.04630442  0.33685533    -0.20100
F390        F  0.23147473  0.14150679  0.35439623    -0.20200
F391        F  0.19998354  0.17088633  0.38838749    -0.20500
F392        F  0.19204383  0.16022230  0.31746892    -0.23200
C393        C  0.18460335  0.05200768  0.11147369    -0.06000
C394        C  0.17550367  0.06392630  0.15090581    -0.00100
C395        C  0.16902042  0.09415028  0.15199865    -0.08700
C396        C  0.17061753  0.11101987  0.11294314    -0.06000
C397        C  0.17944185  0.09899027  0.07272504    -0.00100
C398        C  0.18769652  0.06883044  0.07318983    -0.08600
C399        C  0.20341632  0.05473104  0.03576261     0.61800
H400        H  0.19037864  0.02915435  0.11130238     0.12500
H401        H  0.16514914  0.13385389  0.11382389     0.12500
C402        C  0.16121173  0.10847538  0.19483080     0.62000
F403        F  0.21915623  0.03055057  0.04920997    -0.23100
F404        F  0.22398884  0.07457477  0.02025654    -0.20500
F405        F  0.18304214  0.04571388  0.00260340    -0.20100
F406        F  0.18517603  0.10633070  0.22476441    -0.20200
F407        F  0.13606719  0.09447542  0.21109598    -0.20500
F408        F  0.15522938  0.13779281  0.18985337    -0.23200
O409        O  0.19873729  0.04365574  0.71133050    -0.74700
O410        O  0.20911018  0.48822985  0.80694883    -0.74700
O411        O  0.21598794  0.48537631  0.71937926    -0.74800
O412        O  0.19184646  0.04593755  0.79878104    -0.74800
O413        O  0.14326347  0.03278378  0.78957427    -0.74700
O414        O  0.16740408  0.47219661  0.70925893    -0.74700
O415        O  0.16082368  0.47504597  0.79765020    -0.74700
O416        O  0.15023315  0.03088483  0.70117590    -0.74800
Ni417      Ni  0.20414734  0.01680055  0.75955584     1.25400
Ni418      Ni  0.15525840  0.50189038  0.74901446     1.25400
C419        C  0.17339023  0.04646781  0.69036808     0.87500
C420        C  0.18635990  0.47237213  0.81830970     0.87400
C421        C  0.19513016  0.46917848  0.70094262     0.87500
C422        C  0.16423320  0.04944492  0.80693547     0.87600
C423        C  0.17641367  0.12613063  0.95060052     0.86200
C424        C  0.16569755  0.15633939  0.95962662    -0.54000
C425        C  0.17543536  0.17064894  0.49863305     0.09200
C426        C  0.19630685  0.14971165  0.52683241     0.20100
C427        C  0.21079298  0.12952610  0.95402732    -0.54700
C428        C  0.22206009  0.14190994  0.49544375     0.09300
C429        C  0.16836326  0.10765098  0.99155986    -0.54300
C430        C  0.17823335  0.12008637  0.53099411     0.09800
H431        H  0.15176031  0.16778743  0.93658196     0.14400
H432        H  0.20465713  0.15917866  0.55891213     0.00100
H433        H  0.22506044  0.12202571  0.92853959     0.14700
H434        H  0.15487648  0.08965004  0.48788239     0.14400
C435        C  0.21506447  0.39426562  0.55223842     0.86200
C436        C  0.19271412  0.36762548  0.54962885    -0.54000
C437        C  0.19201223  0.35155478  0.01194970     0.09200
C438        C  0.21477049  0.36460501  0.97896171     0.20100
C439        C  0.24501437  0.38106824  0.54211802    -0.54700
C440        C  0.24522059  0.36512250  0.00554282     0.09300
C441        C  0.20598846  0.41238500  0.51177253    -0.54300
C442        C  0.20689734  0.39745320  0.97326105     0.09800
H443        H  0.17691018  0.36198668  0.57429858     0.14400
H444        H  0.21529385  0.35236169  0.94733879     0.00100
H445        H  0.26473486  0.38552673  0.56253173     0.14700
H446        H  0.19844945  0.43409230  0.01437297     0.14400
O447        O  0.34774712  0.46248166  0.78636161    -0.74700
O448        O  0.33959845  0.02899857  0.71318320    -0.74700
O449        O  0.33739676  0.02108361  0.80040066    -0.74800
O450        O  0.34899961  0.47001753  0.69831005    -0.74800
O451        O  0.29908756  0.46380422  0.69363168    -0.74700
O452        O  0.28771587  0.01504623  0.79285486    -0.74700
O453        O  0.28976161  0.02203622  0.70567471    -0.74700
O454        O  0.29777737  0.45702590  0.78123012    -0.74800
Ni455      Ni  0.34763724  0.49572692  0.74950863     1.25400
Ni456      Ni  0.29419029  0.48945683  0.74334126     1.25400
C457        C  0.32335364  0.44898149  0.79627118     0.87500
C458        C  0.31389008  0.03664644  0.69792036     0.87400
C459        C  0.31103688  0.02676963  0.81322093     0.87500
C460        C  0.32508465  0.45826061  0.67943749     0.87600
C461        C  0.29228288  0.10976447  0.55066511     0.86200
C462        C  0.31343327  0.13522513  0.54023611    -0.54000
C463        C  0.30770663  0.14763430  0.99937674     0.09200
C464        C  0.28055021  0.13268205  0.97283145     0.20100
C465        C  0.26093352  0.12336527  0.54775251    -0.54700
C466        C  0.25434855  0.13394547  0.00550740     0.09300
C467        C  0.29167541  0.08805162  0.51113337    -0.54300
C468        C  0.28769794  0.09949196  0.96900162     0.09800
H469        H  0.33240857  0.14224655  0.56186471     0.14400
H470        H  0.27567278  0.14294013  0.94064901     0.00100
H471        H  0.24410581  0.12082173  0.57221482     0.14700
H472        H  0.29932129  0.06492098  0.01228573     0.14400
C473        C  0.31527691  0.37457293  0.94439590     0.86200
C474        C  0.33030593  0.34570873  0.94975568    -0.54000
C475        C  0.32393868  0.33150115  0.48542264     0.09200
C476        C  0.30270409  0.34872765  0.51570385     0.20100
C477        C  0.28159306  0.36740961  0.94892475    -0.54700
C478        C  0.27439057  0.35590950  0.48615281     0.09300
C479        C  0.32349043  0.39307050  0.98647796    -0.54300
C480        C  0.31883626  0.37903666  0.52510699     0.09800
H481        H  0.34620534  0.33759537  0.92669814     0.14400
H482        H  0.29633659  0.33571818  0.54396658     0.00100
H483        H  0.26446758  0.37607893  0.92675839     0.14700
H484        H  0.33025357  0.41536522  0.48340159     0.14400
O485        O  0.46406243  0.16305833  0.78958468    -0.74700
O486        O  0.02775446  0.16578765  0.70827655    -0.74700
O487        O  0.02532173  0.16911324  0.79675323    -0.74800
O488        O  0.46723740  0.16060170  0.70080890    -0.74800
O489        O  0.46521120  0.20908853  0.69832403    -0.74700
O490        O  0.02262436  0.21746387  0.79355463    -0.74700
O491        O  0.02512577  0.21426347  0.70524044    -0.74700
O492        O  0.46208539  0.21174612  0.78644284    -0.74800
Ni493      Ni  0.49629263  0.16247684  0.75066212     1.25400
Ni494      Ni  0.49411157  0.21442540  0.74751591     1.25400
C495        C  0.45315438  0.18720465  0.80155973     0.87500
C496        C  0.03719164  0.19040441  0.69421700     0.87400
C497        C  0.03366275  0.19470819  0.81167594     0.87500
C498        C  0.45612121  0.18371080  0.68368036     0.87600
C499        C  0.11922002  0.21258873  0.55973090     0.86200
C500        C  0.14610542  0.19374941  0.55332986    -0.54000
C501        C  0.15941796  0.19482335  0.01332818     0.09200
C502        C  0.14439779  0.21893688  0.98309284     0.20100
C503        C  0.13090805  0.24399779  0.55368125    -0.54700
C504        C  0.14375887  0.24733927  0.01309969     0.09300
C505        C  0.09735045  0.20687361  0.51880652    -0.54300
C506        C  0.11041919  0.20923084  0.97612639     0.09800
H507        H  0.15239500  0.17698637  0.57642045     0.14400
H508        H  0.15592523  0.22260638  0.95193652     0.00100
H509        H  0.12626710  0.26170809  0.57576030     0.14700
H510        H  0.07389724  0.19884131  0.01722884     0.14400
C511        C  0.37005646  0.18705775  0.94111824     0.86200
C512        C  0.34239381  0.16700344  0.94577411    -0.54000
C513        C  0.32851854  0.17042168  0.48499098     0.09200
C514        C  0.34427496  0.19492443  0.51512165     0.20100
C515        C  0.35862364  0.21756499  0.94617540    -0.54700
C516        C  0.34697649  0.22260914  0.48465519     0.09300
C517        C  0.38975486  0.18121548  0.98343236    -0.54300
C518        C  0.37684651  0.18381366  0.52333706     0.09800
H519        H  0.33628790  0.14892652  0.92407985     0.14400
H520        H  0.33197771  0.19905377  0.54538219     0.00100
H521        H  0.36398031  0.23436085  0.92300915     0.14700
H522        H  0.41325733  0.17404325  0.48271153     0.14400
O523        O  0.47984912  0.28261086  0.80216306    -0.74700
O524        O  0.03426825  0.29089100  0.70354130    -0.74700
O525        O  0.03996900  0.29707898  0.79194284    -0.74800
O526        O  0.47400356  0.27671462  0.71482656    -0.74800
O527        O  0.46554731  0.32439519  0.70854021    -0.74700
O528        O  0.03160284  0.34472701  0.78637403    -0.74700
O529        O  0.02604569  0.33841343  0.69768447    -0.74700
O530        O  0.47117817  0.33013186  0.79678387    -0.74800
Ni531      Ni  0.50718427  0.28385303  0.75411832     1.25400
Ni532      Ni  0.49809127  0.33481287  0.74804841     1.25400
C533        C  0.46579653  0.30519183  0.81459578     0.87500
C534        C  0.03874956  0.31529162  0.68395644     0.87400
C535        C  0.04658954  0.32374000  0.80231436     0.87500
C536        C  0.45888934  0.29764196  0.69904953     0.87600
C537        C  0.12449286  0.31636399  0.95137702     0.86200
C538        C  0.15311816  0.33415983  0.95982169    -0.54000
C539        C  0.16685593  0.33134015  0.49898262     0.09200
C540        C  0.15010677  0.30829472  0.52836713     0.20100
C541        C  0.13286299  0.28444092  0.95771579    -0.54700
C542        C  0.14587583  0.27985111  0.49862112     0.09300
C543        C  0.10443198  0.32265159  0.99090076    -0.54300
C544        C  0.11745561  0.31938910  0.53181687     0.09800
H545        H  0.16118294  0.34983231  0.93635898     0.14400
H546        H  0.16161154  0.30466949  0.56071723     0.00100
H547        H  0.12549756  0.26726520  0.93455003     0.14700
H548        H  0.08074930  0.32924651  0.48767228     0.14400
C549        C  0.38372619  0.28694550  0.54382333     0.86200
C550        C  0.35989535  0.31015857  0.53740290    -0.54000
C551        C  0.34338323  0.30778487  0.00144177     0.09200
C552        C  0.35383406  0.28276821  0.97079949     0.20100
C553        C  0.36615813  0.25824211  0.53853088    -0.54700
C554        C  0.35143836  0.25454005  0.00019606     0.09300
C555        C  0.40295355  0.29059673  0.50350308    -0.54300
C556        C  0.38827257  0.29036934  0.96598741     0.09800
H557        H  0.35973417  0.33029608  0.55629363     0.14400
H558        H  0.34067959  0.28105376  0.93911990     0.00100
H559        H  0.36848204  0.24132902  0.56239200     0.14700
H560        H  0.42712795  0.29542325  0.00943215     0.14400
C561        C  0.44945163  0.31939841  0.88899207    -0.06000
C562        C  0.44354983  0.30258049  0.85070547    -0.00100
C563        C  0.41611303  0.28534262  0.84785366    -0.08700
C564        C  0.39752196  0.28372255  0.88466217    -0.06000
C565        C  0.40490592  0.29851081  0.92456568    -0.00100
C566        C  0.43007700  0.31901464  0.92469361    -0.08600
C567        C  0.43684092  0.34251223  0.95983697     0.61800
H568        H  0.46929912  0.33379768  0.89069325     0.12500
H569        H  0.37703060  0.27045199  0.88185244     0.12500
C570        C  0.40407881  0.26942426  0.80655436     0.62000
F571        F  0.44338434  0.36895766  0.94018348    -0.23100
F572        F  0.45815101  0.33902266  0.48104171    -0.20500
F573        F  0.41282764  0.34697637  0.98616411    -0.20100
F574        F  0.42446853  0.26876542  0.77381085    -0.20200
F575        F  0.37867277  0.28314727  0.79074833    -0.20500
F576        F  0.39603079  0.24088319  0.81626346    -0.23200
C577        C  0.44276286  0.27056165  0.63398182    -0.06000
C578        C  0.43543820  0.29080332  0.66605433    -0.00100
C579        C  0.40893273  0.30658612  0.66155857    -0.08700
C580        C  0.39264797  0.30418294  0.62181997    -0.06000
C581        C  0.40217813  0.28710161  0.58647873    -0.00100
C582        C  0.42707511  0.26833047  0.59366926    -0.08600
C583        C  0.44121526  0.24879306  0.55937320     0.61800
H584        H  0.46256715  0.25771605  0.63950819     0.12500
H585        H  0.37204871  0.31570836  0.61954000     0.12500
C586        C  0.39647309  0.32584936  0.69711832     0.62000
F587        F  0.45487921  0.22534761  0.57919917    -0.23500
F588        F  0.46392746  0.26269520  0.04089347    -0.20500
F589        F  0.42089050  0.23704954  0.52825213    -0.20100
F590        F  0.39782969  0.35471288  0.68411482    -0.20200
F591        F  0.41169909  0.32373101  0.73722471    -0.20500
F592        F  0.36666206  0.31770953  0.70298708    -0.23200
C593        C  0.09597172  0.31088445  0.83211771    -0.06000
C594        C  0.07158862  0.32941343  0.83404263    -0.00100
C595        C  0.07019284  0.34977984  0.86904751    -0.08700
C596        C  0.09017732  0.34669519  0.90509875    -0.06000
C597        C  0.11063538  0.32382347  0.90688598    -0.00100
C598        C  0.11700719  0.30919145  0.86705408    -0.08600
C599        C  0.14518570  0.29235352  0.85845262     0.61800
H600        H  0.09836934  0.29726400  0.80313811     0.12500
H601        H  0.08887611  0.36127677  0.93310379     0.12500
C602        C  0.04702542  0.37346506  0.86969325     0.62000
F603        F  0.15669004  0.30133561  0.81915780    -0.23100
F604        F  0.13790523  0.26274315  0.85505331    -0.20500
F605        F  0.16786327  0.29701421  0.89023905    -0.20100
F606        F  0.01829874  0.36092209  0.86776094    -0.20200
F607        F  0.05062305  0.39156708  0.83418699    -0.20500
F608        F  0.05002612  0.39067101  0.90740002    -0.23200
C609        C  0.07799893  0.29604414  0.57732629    -0.06000
C610        C  0.09872529  0.31949591  0.57252577    -0.00100
C611        C  0.09757299  0.34327642  0.60302526    -0.08700
C612        C  0.07910603  0.34057590  0.63996745    -0.06000
C613        C  0.05879166  0.31659141  0.64485650    -0.00100
C614        C  0.05692779  0.29506088  0.61073067    -0.08600
C615        C  0.03037708  0.27346973  0.60586087     0.61800
H616        H  0.07746461  0.27867927  0.55341171     0.12500
H617        H  0.07962538  0.35811336  0.66427630     0.12500
C618        C  0.11384074  0.37246657  0.59728818     0.62000
F619        F  0.03026834  0.25761579  0.56684314    -0.23100
F620        F  0.00421434  0.28892286  0.60600810    -0.20500
F621        F  0.03070417  0.25384475  0.63967792    -0.20100
F622        F  0.12578040  0.37532680  0.55644200    -0.20200
F623        F  0.13661296  0.37583041  0.62919807    -0.20500
F624        F  0.09388708  0.39478088  0.60210888    -0.23200
C625        C  0.38605717  0.19374997  0.60584001    -0.06000
C626        C  0.39378678  0.17843423  0.56759626    -0.00100
C627        C  0.41914812  0.15983975  0.57240675    -0.08700
C628        C  0.43900432  0.16294233  0.60985074    -0.06000
C629        C  0.43310365  0.18110413  0.64565020    -0.00100
C630        C  0.40497721  0.19518054  0.64473782    -0.08600
C631        C  0.39403863  0.21006052  0.68563218     0.61800
H632        H  0.36491126  0.20461104  0.60555902     0.12500
H633        H  0.45921651  0.15030645  0.61155627     0.12500
C634        C  0.42521186  0.13444579  0.54166476     0.62000
F635        F  0.36529109  0.22038489  0.67920563    -0.23100
F636        F  0.41290098  0.23345888  0.69805042    -0.20500
F637        F  0.39353297  0.19022884  0.71939084    -0.20100
F638        F  0.44932455  0.14169215  0.51622568    -0.20200
F639        F  0.39929447  0.12703571  0.01159433    -0.20500
F640        F  0.43254282  0.11012334  0.56592426    -0.23200
C641        C  0.40280353  0.17406643  0.82687874    -0.06000
C642        C  0.43137110  0.18711100  0.83551712    -0.00100
C643        C  0.43861655  0.20118873  0.87591626    -0.08700
C644        C  0.41669218  0.20193046  0.90655067    -0.06000
C645        C  0.38889188  0.18639084  0.90071924    -0.00100
C646        C  0.38047280  0.17475272  0.85821150    -0.08600
C647        C  0.34823916  0.16721138  0.84243891     0.61800
H648        H  0.39772326  0.16427055  0.79480165     0.12500
H649        H  0.42158048  0.21440507  0.93654839     0.12500
C650        C  0.46997947  0.21353699  0.88822114     0.62000
F651        F  0.34451720  0.17120852  0.79764177    -0.23100
F652        F  0.32816783  0.18517429  0.86219272    -0.20500
F653        F  0.34116090  0.13825616  0.85060125    -0.20100
F654        F  0.47722402  0.23661694  0.86154218    -0.20200
F655        F  0.49032705  0.19163299  0.88375715    -0.20500
F656        F  0.47254521  0.22364753  0.93124424    -0.23200
C657        C  0.05241993  0.22303898  0.87918401    -0.06000
C658        C  0.05512544  0.19841813  0.85171479    -0.00100
C659        C  0.07713223  0.17795868  0.86448320    -0.08700
C660        C  0.09385525  0.18205758  0.90504723    -0.06000
C661        C  0.09172663  0.20702748  0.93246111    -0.00100
C662        C  0.06938673  0.22741048  0.91922711    -0.08600
C663        C  0.06057933  0.25347319  0.94631144     0.61800
H664        H  0.03573390  0.23887623  0.87011585     0.12500
H665        H  0.10711668  0.16435954  0.91653696     0.12500
C666        C  0.08372973  0.15209280  0.83508690     0.62000
F667        F  0.06278958  0.27852893  0.92165957    -0.23100
F668        F  0.07821469  0.25759164  0.98377065    -0.20500
F669        F  0.02973694  0.24909039  0.46208490    -0.20100
F670        F  0.08758822  0.16144462  0.79264833    -0.20200
F671        F  0.06026295  0.13153019  0.83535589    -0.20500
F672        F  0.10982235  0.13868949  0.84886195    -0.23200
C673        C  0.08238282  0.21640293  0.67047169    -0.06000
C674        C  0.06262635  0.19195629  0.66536519    -0.00100
C675        C  0.06748744  0.17057480  0.63269207    -0.08700
C676        C  0.08852571  0.17741730  0.60139120    -0.06000
C677        C  0.10462690  0.20444929  0.60216455    -0.00100
C678        C  0.10520207  0.22170156  0.64122407    -0.08600
C679        C  0.13086007  0.24245684  0.65702412     0.61800
H680        H  0.08061290  0.23098574  0.69854547     0.12500
H681        H  0.09124520  0.16242277  0.57416226     0.12500
C682        C  0.04990532  0.14151082  0.62910580     0.62000
F683        F  0.13832027  0.23703758  0.70061927    -0.23100
F684        F  0.12200585  0.27110081  0.65395814    -0.20500
F685        F  0.15668384  0.23868575  0.63414421    -0.20100
F686        F  0.01944381  0.14634557  0.62390101    -0.20200
F687        F  0.05536562  0.12545648  0.66653460    -0.20500
F688        F  0.05818060  0.12477126  0.59366994    -0.23200
C689        C  0.31257113  0.40953511  0.64467918    -0.06000
C690        C  0.32708155  0.43703721  0.64173979    -0.00100
C691        C  0.34293699  0.44320749  0.60361211    -0.08700
C692        C  0.34204796  0.42227905  0.56898533    -0.06000
C693        C  0.32496103  0.39544256  0.56956688    -0.00100
C694        C  0.31322910  0.38766840  0.61139136    -0.08600
C695        C  0.30414185  0.35668777  0.62498689     0.61800
H696        H  0.30100983  0.40489220  0.67432444     0.12500
H697        H  0.35516285  0.42725757  0.54097095     0.12500
C698        C  0.35917880  0.47257607  0.59822404     0.62000
F699        F  0.30548395  0.35409823  0.67021885    -0.23100
F700        F  0.32381105  0.33690500  0.60943370    -0.20500
F701        F  0.27512499  0.34884524  0.61080202    -0.20100
F702        F  0.38287257  0.47573122  0.62883745    -0.20200
F703        F  0.33927243  0.49476852  0.60407377    -0.20500
F704        F  0.37068815  0.47549968  0.55695037    -0.23200
C705        C  0.34749104  0.42772016  0.86128444    -0.06000
C706        C  0.32478978  0.42528401  0.82818578    -0.00100
C707        C  0.30395656  0.40119737  0.82780517    -0.08700
C708        C  0.30400733  0.38303052  0.86432038    -0.06000
C709        C  0.32322452  0.38893669  0.90141887    -0.00100
C710        C  0.34813232  0.40889959  0.89692321    -0.08600
C711        C  0.37622886  0.41130761  0.92695371     0.61800
H712        H  0.36480222  0.44491518  0.85985246     0.12500
H713        H  0.28781515  0.36489679  0.86491952     0.12500
C714        C  0.28189035  0.39440750  0.78947773     0.62000
F715        F  0.40143762  0.41077509  0.90181093    -0.23100
F716        F  0.37843197  0.38863764  0.95602211    -0.20500
F717        F  0.37673581  0.43758922  0.95001700    -0.20100
F718        F  0.29705014  0.39512871  0.75093326    -0.20200
F719        F  0.25939327  0.41458355  0.78808068    -0.20500
F720        F  0.26832547  0.36685353  0.79250092    -0.23200
C721        C  0.27888531  0.04314773  0.87284165    -0.06000
C722        C  0.30650200  0.04641082  0.85254124    -0.00100
C723        C  0.32810580  0.06726385  0.87111004    -0.08700
C724        C  0.32021485  0.08496440  0.90734462    -0.06000
C725        C  0.29225424  0.08189916  0.92721655    -0.00100
C726        C  0.27212221  0.05892895  0.91096798    -0.08600
C727        C  0.24468596  0.04887525  0.93500021     0.61800
H728        H  0.26292270  0.02656017  0.85985296     0.12500
H729        H  0.33674014  0.10020045  0.92230452     0.12500
C730        C  0.35955956  0.07059073  0.85379928     0.62000
F731        F  0.22863130  0.02608910  0.91357347    -0.23100
F732        F  0.22544053  0.07149610  0.93875385    -0.20500
F733        F  0.25381249  0.03898421  0.97576436    -0.20100
F734        F  0.35781583  0.07739906  0.80974378    -0.20200
F735        F  0.37452699  0.04477138  0.85945980    -0.20500
F736        F  0.37656390  0.09253677  0.87569527    -0.23200
C737        C  0.33237171  0.06047140  0.63346281    -0.06000
C738        C  0.31243887  0.06087437  0.66737909    -0.00100
C739        C  0.29063691  0.08250925  0.66878685    -0.08700
C740        C  0.28579985  0.09942322  0.63130207    -0.06000
C741        C  0.30242712  0.09542731  0.59328499    -0.00100
C742        C  0.32846325  0.07773907  0.59651053    -0.08600
C743        C  0.35275728  0.07432937  0.56302092     0.61800
H744        H  0.35072722  0.04540477  0.63496136     0.12500
H745        H  0.26913931  0.11596622  0.63222483     0.12500
C746        C  0.27428560  0.08901180  0.71047551     0.62000
F747        F  0.35138008  0.04592934  0.54668664    -0.23100
F748        F  0.38064470  0.07937913  0.58398762    -0.20500
F749        F  0.35114326  0.09294154  0.52809133    -0.20100
F750        F  0.29523854  0.09523561  0.74435175    -0.20200
F751        F  0.25637407  0.06535071  0.72177535    -0.20500
F752        F  0.25603069  0.11284075  0.70581701    -0.23200
C753        C  0.21811665  0.45322762  0.88045319    -0.06000
C754        C  0.19051820  0.45124560  0.85625063    -0.00100
C755        C  0.16888055  0.42956513  0.86937641    -0.08700
C756        C  0.17563075  0.41184149  0.90642683    -0.06000
C757        C  0.20331617  0.41409812  0.93055508    -0.00100
C758        C  0.22495355  0.43548336  0.91673906    -0.08600
C759        C  0.25578445  0.44148059  0.93849145     0.61800
H760        H  0.23503476  0.46936289  0.87126479     0.12500
H761        H  0.15860234  0.39678878  0.91793332     0.12500
C762        C  0.13868091  0.42482330  0.84491452     0.62000
F763        F  0.27752734  0.43871318  0.90772203    -0.23100
F764        F  0.26228850  0.42275584  0.97185802    -0.20500
F765        F  0.25754443  0.46977932  0.95514311    -0.20100
F766        F  0.14312793  0.41827946  0.80134822    -0.20200
F767        F  0.12203163  0.44973583  0.84801105    -0.20500
F768        F  0.12195372  0.40185595  0.86178131    -0.23200
C769        C  0.20298143  0.40063435  0.63252353    -0.06000
C770        C  0.21648633  0.41243052  0.59517887    -0.00100
C771        C  0.22936789  0.44162109  0.59904309    -0.08700
C772        C  0.22118146  0.45919769  0.63418346    -0.06000
C773        C  0.20346984  0.44828991  0.66727753    -0.00100
C774        C  0.19566659  0.41827642  0.66826509    -0.08600
C775        C  0.17980492  0.40510067  0.70684194     0.61800
H776        H  0.19777340  0.37751025  0.63391006     0.12500
H777        H  0.22827061  0.48213794  0.63559631     0.12500
C778        C  0.25125765  0.45589373  0.56789117     0.62000
F779        F  0.17785761  0.37484763  0.70414107    -0.23100
F780        F  0.15090066  0.41528610  0.70790490    -0.20500
F781        F  0.19547162  0.41289475  0.74556004    -0.20100
F782        F  0.23578641  0.47009289  0.53480178    -0.20200
F783        F  0.27002006  0.43602861  0.55032807    -0.20500
F784        F  0.26986272  0.47655064  0.59005496    -0.23200
C785        C  0.14102450  0.09191560  0.90556263    -0.06000
C786        C  0.16418476  0.11382313  0.90635838    -0.00100
C787        C  0.17797191  0.12031588  0.86612932    -0.08700
C788        C  0.17532673  0.09927185  0.83262281    -0.06000
C789        C  0.15770077  0.07363212  0.83658810    -0.00100
C790        C  0.13803553  0.07093057  0.87155936    -0.08600
C791        C  0.11585687  0.04517224  0.87481105     0.61800
H792        H  0.12636839  0.09016227  0.93280352     0.12500
H793        H  0.18844894  0.10226568  0.80369838     0.12500
C794        C  0.19617202  0.14798481  0.85598831     0.62000
F795        F  0.09863915  0.04738330  0.91146055    -0.23100
F796        F  0.13128110  0.01941605  0.87752941    -0.20500
F797        F  0.09643073  0.04402742  0.83822611    -0.20100
F798        F  0.22589759  0.14118627  0.85061297    -0.20200
F799        F  0.19522751  0.16965585  0.88760519    -0.20500
F800        F  0.18481598  0.15940424  0.81714969    -0.23200
C801        C  0.18623480  0.05572623  0.61340903    -0.06000
C802        C  0.17227745  0.06588544  0.65050655    -0.00100
C803        C  0.15959018  0.09404701  0.64863094    -0.08700
C804        C  0.16228276  0.11122785  0.60995353    -0.06000
C805        C  0.17645428  0.10098316  0.57227240    -0.00100
C806        C  0.18813994  0.07211488  0.57454175    -0.08600
C807        C  0.20361995  0.05814785  0.53689100     0.61800
H808        H  0.19548541  0.03411355  0.61506373     0.12500
H809        H  0.15275461  0.13262323  0.60877719     0.12500
C810        C  0.14340102  0.10581758  0.68749179     0.62000
F811        F  0.22008501  0.03437477  0.55004314    -0.23100
F812        F  0.22329177  0.07822796  0.52005123    -0.20500
F813        F  0.18273088  0.04852871  0.50475286    -0.20100
F814        F  0.16309947  0.10802461  0.72368312    -0.20200
F815        F  0.11957520  0.08700555  0.69669388    -0.20500
F816        F  0.13212022  0.13320799  0.67949404    -0.23200
O817        O  0.20053750  0.54289505  0.21004693    -0.74700
O818        O  0.20880083  0.98859523  0.30898586    -0.74700
O819        O  0.21511632  0.98471764  0.22148287    -0.74800
O820        O  0.19420689  0.54588057  0.29759630    -0.74800
O821        O  0.14532647  0.53393561  0.28881140    -0.74700
O822        O  0.16636370  0.97202429  0.21206914    -0.74700
O823        O  0.16031891  0.97598202  0.30049084    -0.74700
O824        O  0.15184289  0.53072074  0.20021760    -0.74800
Ni825      Ni  0.20559570  0.51627992  0.25836167     1.25400
Ni826      Ni  0.15493364  0.00242938  0.25114813     1.25400
C827        C  0.17526158  0.54573898  0.18901126     0.87500
C828        C  0.18595252  0.97307938  0.32084737     0.87400
C829        C  0.19398612  0.96858199  0.20357675     0.87500
C830        C  0.16675255  0.55013264  0.30600576     0.87600
C831        C  0.17860046  0.62666542  0.45078942     0.86200
C832        C  0.16846811  0.65717814  0.45986924    -0.54000
C833        C  0.17707643  0.66894900  0.99732493     0.09200
C834        C  0.19842170  0.64791255  0.02474773     0.20100
C835        C  0.21286498  0.62913641  0.45581101    -0.54700
C836        C  0.22382962  0.63976708  0.99268927     0.09300
C837        C  0.16925170  0.60801327  0.49096209    -0.54300
C838        C  0.18047441  0.61834987  0.02928261     0.09800
H839        H  0.15508438  0.66905594  0.43645247     0.14400
H840        H  0.20721389  0.65736453  0.05661457     0.00100
H841        H  0.22742790  0.62139369  0.43095339     0.14700
H842        H  0.15622175  0.58816582  0.98675298     0.14400
C843        C  0.21332509  0.89421919  0.05384433     0.86200
C844        C  0.19106812  0.86750005  0.05149280    -0.54000
C845        C  0.19123071  0.85222325  0.51441428     0.09200
C846        C  0.21410240  0.86458542  0.48126069     0.20100
C847        C  0.24336862  0.88105560  0.04424591    -0.54700
C848        C  0.24453088  0.86428163  0.50776156     0.09300
C849        C  0.20446098  0.91209105  0.01295565    -0.54300
C850        C  0.20723902  0.89770881  0.47521824     0.09800
H851        H  0.17524969  0.86193347  0.07616605     0.14400
H852        H  0.21415991  0.85214172  0.44976197     0.00100
H853        H  0.26294945  0.88578771  0.06475048     0.14700
H854        H  0.20066870  0.93501013  0.51602920     0.14400
O855        O  0.34003793  0.96322385  0.28806275    -0.74700
O856        O  0.34230310  0.52968950  0.21309158    -0.74700
O857        O  0.34063772  0.52183326  0.30067107    -0.74800
O858        O  0.34274380  0.97031988  0.20048960    -0.74800
O859        O  0.29291814  0.96363180  0.19432447    -0.74700
O860        O  0.29089105  0.51614677  0.29390861    -0.74700
O861        O  0.29226345  0.52374002  0.20662042    -0.74700
O862        O  0.29013668  0.95765131  0.28207070    -0.74800
Ni863      Ni  0.34039925  0.99623413  0.25097556     1.25400
Ni864      Ni  0.28703303  0.98982228  0.24331147     1.25400
C865        C  0.31563426  0.94958091  0.29749822     0.87500
C866        C  0.31668608  0.53772503  0.19814666     0.87400
C867        C  0.31442507  0.52741844  0.31426185     0.87500
C868        C  0.31924800  0.95821522  0.18111513     0.87600
C869        C  0.29479621  0.60882590  0.04939558     0.86200
C870        C  0.31450926  0.63554932  0.03984448    -0.54000
C871        C  0.30882224  0.64739615  0.50063356     0.09200
C872        C  0.28198087  0.63172744  0.47465858     0.20100
C873        C  0.26247796  0.62017544  0.04487040    -0.54700
C874        C  0.25591350  0.63280885  0.50764031     0.09300
C875        C  0.29655190  0.58731670  0.01015525    -0.54300
C876        C  0.29000809  0.59874014  0.47122774     0.09800
H877        H  0.33273096  0.64351608  0.06215176     0.14400
H878        H  0.27683201  0.64167520  0.44232979     0.00100
H879        H  0.24542328  0.61690862  0.06882137     0.14700
H880        H  0.30302239  0.56483021  0.51498787     0.14400
C881        C  0.31275393  0.87243543  0.44329791     0.86200
C882        C  0.32770933  0.84349758  0.44807710    -0.54000
C883        C  0.32287923  0.83147955  0.98819938     0.09200
C884        C  0.30145287  0.84857623  0.01823474     0.20100
C885        C  0.27938740  0.86545447  0.44993211    -0.54700
C886        C  0.27297758  0.85544438  0.98890936     0.09300
C887        C  0.32246710  0.89114866  0.48499923    -0.54300
C888        C  0.31724704  0.87896926  0.02720805     0.09800
H889        H  0.34291177  0.83520122  0.42416263     0.14400
H890        H  0.29542292  0.83551181  0.04652023     0.00100
H891        H  0.26174506  0.87430706  0.42889300     0.14700
H892        H  0.32991022  0.91482809  0.98462599     0.14400
O893        O  0.46479996  0.66106944  0.28952174    -0.74700
O894        O  0.02781205  0.66362360  0.21031637    -0.74700
O895        O  0.02606852  0.66668530  0.29970132    -0.74800
O896        O  0.46754948  0.65893558  0.20060513    -0.74800
O897        O  0.46538143  0.70741130  0.19842629    -0.74700
O898        O  0.02289262  0.71500287  0.29712181    -0.74700
O899        O  0.02546188  0.71218738  0.20844168    -0.74700
O900        O  0.46249181  0.70975396  0.28662472    -0.74800
Ni901      Ni  0.49683371  0.66083241  0.25041682     1.25400
Ni902      Ni  0.49434114  0.71279244  0.24750867     1.25400
C903        C  0.45382966  0.68511070  0.30172111     0.87500
C904        C  0.03687573  0.68832557  0.19597809     0.87400
C905        C  0.03414798  0.69231195  0.31511482     0.87500
C906        C  0.45628613  0.68207113  0.18365377     0.87600
C907        C  0.11823941  0.70892646  0.05779111     0.86200
C908        C  0.14488205  0.68974633  0.05133435    -0.54000
C909        C  0.16034054  0.69408322  0.51560633     0.09200
C910        C  0.14528035  0.71850061  0.48629602     0.20100
C911        C  0.13059834  0.74046872  0.05430272    -0.54700
C912        C  0.14506038  0.74664944  0.51694716     0.09300
C913        C  0.09738791  0.70473139  0.01554705    -0.54300
C914        C  0.11126701  0.70892403  0.47962313     0.09800
H915        H  0.14998318  0.67199399  0.07316696     0.14400
H916        H  0.15659325  0.72235607  0.45501510     0.00100
H917        H  0.12590857  0.75745798  0.07769962     0.14700
H918        H  0.07494831  0.69842960  0.52094200     0.14400
C919        C  0.36995938  0.68645570  0.43990813     0.86200
C920        C  0.34244406  0.66641036  0.44553938    -0.54000
C921        C  0.32904414  0.67110708  0.98473331     0.09200
C922        C  0.34465169  0.69546196  0.01528182     0.20100
C923        C  0.35841686  0.71696519  0.44501968    -0.54700
C924        C  0.34649647  0.72368365  0.98575499     0.09300
C925        C  0.39023205  0.68091533  0.48180741    -0.54300
C926        C  0.37749786  0.68484224  0.02238584     0.09800
H927        H  0.33599060  0.64817625  0.42427467     0.14400
H928        H  0.33253853  0.69888641  0.04589502     0.00100
H929        H  0.36316973  0.73357569  0.42146573     0.14700
H930        H  0.41375089  0.67696973  0.98026623     0.14400
O931        O  0.48081668  0.78505714  0.30310813    -0.74700
O932        O  0.03426108  0.78824862  0.20834537    -0.74700
O933        O  0.03914532  0.79484995  0.29679969    -0.74800
O934        O  0.47625727  0.77947670  0.21551337    -0.74800
O935        O  0.46694303  0.82700668  0.21022576    -0.74700
O936        O  0.03091883  0.84251020  0.29074086    -0.74700
O937        O  0.02602757  0.83570951  0.20190256    -0.74700
O938        O  0.47180939  0.83257009  0.29835582    -0.74800
Ni939      Ni  0.50869520  0.78703043  0.25596501     1.25400
Ni940      Ni  0.49897636  0.83789641  0.25021459     1.25400
C941        C  0.46646714  0.80742694  0.31554286     0.87500
C942        C  0.03885893  0.81253511  0.18851289     0.87400
C943        C  0.04571753  0.82155132  0.30705324     0.87500
C944        C  0.46095418  0.80029366  0.19980639     0.87600
C945        C  0.12461141  0.81500536  0.45489622     0.86200
C946        C  0.15282420  0.83343324  0.46285374    -0.54000
C947        C  0.16631571  0.82980542  0.00192283     0.09200
C948        C  0.15007770  0.80629803  0.03144440     0.20100
C949        C  0.13366333  0.78338374  0.46163770    -0.54700
C950        C  0.14578500  0.77790339  0.00129959     0.09300
C951        C  0.10453826  0.82110987  0.49439891    -0.54300
C952        C  0.11738221  0.81719697  0.03570078     0.09800
H953        H  0.16035827  0.84921414  0.43916315     0.14400
H954        H  0.16188801  0.80257067  0.06353603     0.00100
H955        H  0.12608059  0.76594896  0.43913982     0.14700
H956        H  0.08025455  0.82709428  0.99228361     0.14400
C957        C  0.38315091  0.78732983  0.04726148     0.86200
C958        C  0.35908827  0.81046643  0.04096474    -0.54000
C959        C  0.34337811  0.80692537  0.50053732     0.09200
C960        C  0.35451731  0.78218267  0.47012497     0.20100
C961        C  0.36584578  0.75860115  0.04088852    -0.54700
C962        C  0.35269339  0.75404271  0.49954272     0.09300
C963        C  0.40276321  0.79167137  0.00744050    -0.54300
C964        C  0.38882144  0.79043117  0.46558442     0.09800
H965        H  0.35828282  0.83023294  0.06055499     0.14400
H966        H  0.34155305  0.78014378  0.43831369     0.00100
H967        H  0.36790488  0.74145234  0.06444421     0.14700
H968        H  0.42757361  0.79649977  0.50897766     0.14400
C969        C  0.44863270  0.82195460  0.38872863    -0.06000
C970        C  0.44394605  0.80435310  0.35099995    -0.00100
C971        C  0.41761919  0.78556373  0.34828864    -0.08700
C972        C  0.39896790  0.78334209  0.38488854    -0.06000
C973        C  0.40521805  0.79903787  0.42434129    -0.00100
C974        C  0.42926359  0.82076846  0.42434453    -0.08600
C975        C  0.43520737  0.84440458  0.45953602     0.61800
H976        H  0.46764283  0.83739628  0.39021722     0.12500
H977        H  0.37940989  0.76888941  0.38225595     0.12500
C978        C  0.40684997  0.76827718  0.30750645     0.62000
F979        F  0.43969816  0.87120743  0.43984818    -0.23100
F980        F  0.46080992  0.83722188  0.98655359    -0.20500
F981        F  0.41161237  0.84736230  0.48712219    -0.20100
F982        F  0.42658653  0.76975888  0.27391431    -0.20200
F983        F  0.37957186  0.77879704  0.29243976    -0.20500
F984        F  0.40244798  0.73924373  0.31785457    -0.23200
C985        C  0.44404557  0.77236139  0.13538906    -0.06000
C986        C  0.43755276  0.79344533  0.16665793    -0.00100
C987        C  0.41068822  0.80876591  0.16319646    -0.08700
C988        C  0.39256716  0.80440890  0.12529560    -0.06000
C989        C  0.40156796  0.78704934  0.08993523    -0.00100
C990        C  0.42711446  0.76894273  0.09626976    -0.08600
C991        C  0.44062370  0.74870751  0.06228408     0.61800
H992        H  0.46384093  0.75948081  0.14060512     0.12500
H993        H  0.37168707  0.81546612  0.12335087     0.12500
C994        C  0.40160222  0.83061194  0.19791370     0.62000
F995        F  0.45266123  0.72463590  0.08257337    -0.23500
F996        F  0.46444851  0.76552014  0.54155882    -0.20500
F997        F  0.42039644  0.73799409  0.03027395    -0.20100
F998        F  0.41732445  0.85686026  0.19297144    -0.20200
F999        F  0.40772540  0.82022948  0.23950595    -0.20500
F1000       F  0.37111193  0.83586485  0.19443141    -0.23200
C1001       C  0.09480768  0.80835857  0.33652789    -0.06000
C1002       C  0.07075886  0.82725194  0.33855377    -0.00100
C1003       C  0.06992167  0.84801376  0.37316637    -0.08700
C1004       C  0.09034916  0.84515201  0.40871058    -0.06000
C1005       C  0.11043532  0.82198591  0.41054591    -0.00100
C1006       C  0.11609693  0.80669432  0.37100526    -0.08600
C1007       C  0.14382808  0.78923613  0.36224682     0.61800
H1008       H  0.09671922  0.79437782  0.30780437     0.12500
H1009       H  0.08956955  0.86000616  0.43650431     0.12500
C1010       C  0.04693306  0.87185701  0.37409886     0.62000
F1011       F  0.15415238  0.79624310  0.32135752    -0.23100
F1012       F  0.13637913  0.75961766  0.36217178    -0.20500
F1013       F  0.16736747  0.79527135  0.39223799    -0.20100
F1014       F  0.01813533  0.85949962  0.37288215    -0.20200
F1015       F  0.05028287  0.88979486  0.33836804    -0.20500
F1016       F  0.05042057  0.88920070  0.41164752    -0.23200
C1017       C  0.07883788  0.79314286  0.08198190    -0.06000
C1018       C  0.09898397  0.81700845  0.07681473    -0.00100
C1019       C  0.09728992  0.84089476  0.10710583    -0.08700
C1020       C  0.07903614  0.83795594  0.14425594    -0.06000
C1021       C  0.05920561  0.81366516  0.14953924    -0.00100
C1022       C  0.05793093  0.79185244  0.11569283    -0.08600
C1023       C  0.03194888  0.76967251  0.11120908     0.61800
H1024       H  0.07833097  0.77593296  0.05759330     0.12500
H1025       H  0.07916145  0.85564602  0.16828450     0.12500
C1026       C  0.11244741  0.87055045  0.10073197     0.62000
F1027       F  0.03255028  0.75303080  0.07300294    -0.23100
F1028       F  0.00546124  0.78459954  0.11015029    -0.20500
F1029       F  0.03245020  0.75079562  0.14587965    -0.20100
F1030       F  0.12352851  0.87371726  0.05939113    -0.20200
F1031       F  0.13563216  0.87470414  0.13183768    -0.20500
F1032       F  0.09182957  0.89220702  0.10625531    -0.23200
C1033       C  0.38663764  0.69331231  0.10524767    -0.06000
C1034       C  0.39461717  0.67876485  0.06641467    -0.00100
C1035       C  0.41999471  0.66010701  0.07080436    -0.08700
C1036       C  0.43900559  0.66181733  0.10935628    -0.06000
C1037       C  0.43317947  0.67968671  0.14554898    -0.00100
C1038       C  0.40544604  0.69446878  0.14428848    -0.08600
C1039       C  0.39492476  0.71029030  0.18472629     0.61800
H1040       H  0.36544422  0.70405324  0.10522861     0.12500
H1041       H  0.45882472  0.64872467  0.11122262     0.12500
C1042       C  0.42746908  0.63656579  0.03763290     0.62000
F1043       F  0.36653119  0.72136376  0.17786566    -0.23100
F1044       F  0.41440503  0.73341488  0.19633150    -0.20500
F1045       F  0.39382574  0.69105597  0.21923375    -0.20100
F1046       F  0.45108254  0.64640317  0.01297067    -0.20200
F1047       F  0.40362618  0.62760427  0.51054927    -0.20500
F1048       F  0.43635220  0.61160942  0.05915511    -0.23200
C1049       C  0.40372438  0.67124695  0.32685214    -0.06000
C1050       C  0.43203514  0.68479032  0.33555640    -0.00100
C1051       C  0.43868674  0.69977572  0.37536828    -0.08700
C1052       C  0.41612072  0.70172198  0.40476629    -0.06000
C1053       C  0.38862495  0.68562698  0.39930019    -0.00100
C1054       C  0.38103940  0.67226843  0.35761476    -0.08600
C1055       C  0.34926433  0.66303279  0.34182812     0.61800
H1056       H  0.39917835  0.66071903  0.29513263     0.12500
H1057       H  0.42045270  0.71518579  0.43396878     0.12500
C1058       C  0.46996047  0.71202044  0.38836282     0.62000
F1059       F  0.34583242  0.66508278  0.29664017    -0.23100
F1060       F  0.32831299  0.68099253  0.35950668    -0.20500
F1061       F  0.34327188  0.63429098  0.35250781    -0.20100
F1062       F  0.47760337  0.73501774  0.36171415    -0.20200
F1063       F  0.49029295  0.69001403  0.38461379    -0.20500
F1064       F  0.47199707  0.72217471  0.43139440    -0.23200
C1065       C  0.05231931  0.72093599  0.38311519    -0.06000
C1066       C  0.05549057  0.69633499  0.35559891    -0.00100
C1067       C  0.07813644  0.67651870  0.36844926    -0.08700
C1068       C  0.09516862  0.68128188  0.40873636    -0.06000
C1069       C  0.09247627  0.70621397  0.43604890    -0.00100
C1070       C  0.06948391  0.72592966  0.42295726    -0.08600
C1071       C  0.06038643  0.75197993  0.44996689     0.61800
H1072       H  0.03534341  0.73644022  0.37403514     0.12500
H1073       H  0.10933688  0.66417964  0.42017409     0.12500
C1074       C  0.08505334  0.65062964  0.33941905     0.62000
F1075       F  0.06134503  0.77684930  0.42473338    -0.23100
F1076       F  0.07857087  0.75701915  0.48675128    -0.20500
F1077       F  0.03033778  0.74848050  0.95969747    -0.20100
F1078       F  0.08818636  0.65964621  0.29667948    -0.20200
F1079       F  0.06210267  0.62957657  0.34072577    -0.20500
F1080       F  0.11165967  0.63805878  0.35283256    -0.23200
C1081       C  0.08441996  0.71011163  0.17179700    -0.06000
C1082       C  0.06065604  0.68959976  0.16423349    -0.00100
C1083       C  0.05958365  0.67173331  0.12605340    -0.08700
C1084       C  0.08144045  0.67662173  0.09524258    -0.06000
C1085       C  0.10233382  0.70039231  0.09930083    -0.00100
C1086       C  0.10658310  0.71457253  0.14098554    -0.08600
C1087       C  0.13484474  0.73176510  0.15674129     0.61800
H1088       H  0.08604045  0.72228162  0.20262567     0.12500
H1089       H  0.08109588  0.66288530  0.06606512     0.12500
C1090       C  0.03395654  0.64970780  0.11555115     0.62000
F1091       F  0.14344139  0.72292149  0.19851616    -0.23100
F1092       F  0.12905226  0.76128462  0.15854396    -0.20500
F1093       F  0.15894678  0.72714336  0.13061682    -0.20100
F1094       F  0.00701589  0.66372032  0.11740603    -0.20200
F1095       F  0.03460612  0.62719254  0.14531355    -0.20500
F1096       F  0.03543059  0.63752433  0.07391180    -0.23200
C1097       C  0.30874034  0.90903394  0.14670505    -0.06000
C1098       C  0.32234015  0.93690933  0.14381724    -0.00100
C1099       C  0.33884540  0.94330601  0.10635052    -0.08700
C1100       C  0.33891642  0.92248097  0.07170992    -0.06000
C1101       C  0.32253956  0.89531418  0.07189419    -0.00100
C1102       C  0.31049592  0.88719298  0.11355137    -0.08600
C1103       C  0.30161138  0.85609165  0.12700870     0.61800
H1104       H  0.29714628  0.90411750  0.17628907     0.12500
H1105       H  0.35214466  0.92783488  0.04396794     0.12500
C1106       C  0.35474264  0.97284965  0.10162698     0.62000
F1107       F  0.30162137  0.85367394  0.17224304    -0.23100
F1108       F  0.32218970  0.83663878  0.11303499    -0.20500
F1109       F  0.27309372  0.84764994  0.11124106    -0.20100
F1110       F  0.37778843  0.97636734  0.13323212    -0.20200
F1111       F  0.33422416  0.99455843  0.10653814    -0.20500
F1112       F  0.36706274  0.97602600  0.06094301    -0.23200
C1113       C  0.34196596  0.92584751  0.35876183    -0.06000
C1114       C  0.31733502  0.92527542  0.32856487    -0.00100
C1115       C  0.29578367  0.90178590  0.32925637    -0.08700
C1116       C  0.29759392  0.88233476  0.36427619    -0.06000
C1117       C  0.31896015  0.88667214  0.39941123    -0.00100
C1118       C  0.34400907  0.90594121  0.39291929    -0.08600
C1119       C  0.37372807  0.90622109  0.41910090     0.61800
H1120       H  0.35987494  0.94233714  0.35621153     0.12500
H1121       H  0.28115123  0.86446186  0.36545171     0.12500
C1122       C  0.27072419  0.89726990  0.29423483     0.62000
F1123       F  0.39693947  0.90425366  0.39040800    -0.23100
F1124       F  0.37602056  0.88317386  0.44737331    -0.20500
F1125       F  0.37751586  0.93217224  0.44275766    -0.20100
F1126       F  0.28250939  0.89890854  0.25312767    -0.20200
F1127       F  0.24948348  0.91840186  0.29872639    -0.20500
F1128       F  0.25620679  0.87015076  0.29722596    -0.23200
C1129       C  0.28213829  0.54322359  0.37396498    -0.06000
C1130       C  0.31005857  0.54636134  0.35444092    -0.00100
C1131       C  0.33188217  0.56636284  0.37455343    -0.08700
C1132       C  0.32370973  0.58386293  0.41093567    -0.06000
C1133       C  0.29524766  0.58119641  0.42957723    -0.00100
C1134       C  0.27507510  0.55862220  0.41224870    -0.08600
C1135       C  0.24719281  0.54858893  0.43522362     0.61800
H1136       H  0.26599165  0.52712802  0.36005459     0.12500
H1137       H  0.34023603  0.59877828  0.42673949     0.12500
C1138       C  0.36380779  0.56889117  0.35880202     0.62000
F1139       F  0.23183977  0.52537586  0.41377836    -0.23100
F1140       F  0.22758944  0.57102584  0.43730809    -0.20500
F1141       F  0.25556468  0.53932028  0.47664248    -0.20100
F1142       F  0.36334776  0.57660847  0.31510103    -0.20200
F1143       F  0.37759061  0.54238037  0.36387678    -0.20500
F1144       F  0.38113550  0.58982241  0.38241354    -0.23200
C1145       C  0.33611788  0.56220089  0.13468908    -0.06000
C1146       C  0.31559323  0.56212353  0.16794495    -0.00100
C1147       C  0.29296480  0.58293539  0.16797327    -0.08700
C1148       C  0.28754376  0.59873855  0.12971678    -0.06000
C1149       C  0.30500676  0.59523087  0.09251004    -0.00100
C1150       C  0.33207071  0.57910356  0.09731227    -0.08600
C1151       C  0.35758372  0.57738903  0.06546825     0.61800
H1152       H  0.35500975  0.54777244  0.13694540     0.12500
H1153       H  0.26982523  0.61431069  0.12998057     0.12500
C1154       C  0.27494420  0.59014435  0.20763356     0.62000
F1155       F  0.35939147  0.54885864  0.05035639    -0.23100
F1156       F  0.38436339  0.58524493  0.08785811    -0.20500
F1157       F  0.35515834  0.59521093  0.02968907    -0.20100
F1158       F  0.28443931  0.57567525  0.24494919    -0.20200
F1159       F  0.24493596  0.58306803  0.19846533    -0.20500
F1160       F  0.27791834  0.61986064  0.21663124    -0.23200
C1161       C  0.21765841  0.95440467  0.38343965    -0.06000
C1162       C  0.19022588  0.95198856  0.35886429    -0.00100
C1163       C  0.16909250  0.92962060  0.37126753    -0.08700
C1164       C  0.17612780  0.91164386  0.40794848    -0.06000
C1165       C  0.20367234  0.91426755  0.43236146    -0.00100
C1166       C  0.22492892  0.93617794  0.41901189    -0.08600
C1167       C  0.25584015  0.94208242  0.44049682     0.61800
H1168       H  0.23419629  0.97108288  0.37484927     0.12500
H1169       H  0.15940263  0.89609045  0.41897450     0.12500
C1170       C  0.13910100  0.92444683  0.34646550     0.62000
F1171       F  0.27732874  0.94140747  0.40904168    -0.23100
F1172       F  0.26324275  0.92189794  0.47143872    -0.20500
F1173       F  0.25700954  0.96957974  0.45998941    -0.20100
F1174       F  0.14386648  0.91886164  0.30273211    -0.20200
F1175       F  0.12172696  0.94880662  0.35042485    -0.20500
F1176       F  0.12300729  0.90068821  0.36229619    -0.23200
C1177       C  0.20159140  0.90029343  0.13429129    -0.06000
C1178       C  0.21457022  0.91240437  0.09676025    -0.00100
C1179       C  0.22707066  0.94170418  0.10066519    -0.08700
C1180       C  0.21894011  0.95904426  0.13602808    -0.06000
C1181       C  0.20190203  0.94777073  0.16957521    -0.00100
C1182       C  0.19446232  0.91766098  0.17043420    -0.08600
C1183       C  0.17928618  0.90404346  0.20924377     0.61800
H1184       H  0.19681294  0.87708752  0.13559005     0.12500
H1185       H  0.22576251  0.98206119  0.13742348     0.12500
C1186       C  0.24880266  0.95627055  0.06968920     0.62000
F1187       F  0.17696490  0.87382639  0.20559336    -0.23100
F1188       F  0.15057901  0.91445999  0.21196669    -0.20500
F1189       F  0.19579033  0.91113133  0.24749177    -0.20100
F1190       F  0.23314529  0.97117022  0.03754538    -0.20200
F1191       F  0.26714869  0.93652922  0.05095760    -0.20500
F1192       F  0.26780518  0.97635578  0.09235895    -0.23200
C1193       C  0.14330321  0.59369553  0.40384810    -0.06000
C1194       C  0.16727247  0.61473446  0.40590558    -0.00100
C1195       C  0.18273945  0.62033136  0.36673184    -0.08700
C1196       C  0.18012829  0.59926700  0.33326441    -0.06000
C1197       C  0.16096557  0.57453240  0.33589269    -0.00100
C1198       C  0.14016543  0.57286861  0.36962693    -0.08600
C1199       C  0.11616610  0.54856724  0.37114938     0.61800
H1200       H  0.12784990  0.59268208  0.43021859     0.12500
H1201       H  0.19438056  0.60155636  0.30542344     0.12500
C1202       C  0.20285245  0.64700370  0.35789635     0.62000
F1203       F  0.09860033  0.55131609  0.40735519    -0.23100
F1204       F  0.12953594  0.52169294  0.37320122    -0.20500
F1205       F  0.09735042  0.54944579  0.33400891    -0.20100
F1206       F  0.23231956  0.63858843  0.35471735    -0.20200
F1207       F  0.20193694  0.66880273  0.38938483    -0.20500
F1208       F  0.19360815  0.65892596  0.31833009    -0.23200
C1209       C  0.18280711  0.55248991  0.10958710    -0.06000
C1210       C  0.17425488  0.56486956  0.14906145    -0.00100
C1211       C  0.16842171  0.59523151  0.14994068    -0.08700
C1212       C  0.17069269  0.61188470  0.11086798    -0.06000
C1213       C  0.17904818  0.59946098  0.07069613    -0.00100
C1214       C  0.18624331  0.56906216  0.07114964    -0.08600
C1215       C  0.20117121  0.55432464  0.03349642     0.61800
H1216       H  0.18793943  0.52947023  0.10947103     0.12500
H1217       H  0.16626717  0.63489860  0.11185681     0.12500
C1218       C  0.16040911  0.60997637  0.19240383     0.62000
F1219       F  0.21733410  0.53051532  0.04735302    -0.23100
F1220       F  0.22124231  0.57386126  0.01593642    -0.20500
F1221       F  0.17999931  0.54456782  0.00181413    -0.20100
F1222       F  0.18419162  0.60812118  0.22270134    -0.20200
F1223       F  0.13514013  0.59619469  0.20865440    -0.20500
F1224       F  0.15442999  0.63925010  0.18671381    -0.23200
O1225       O  0.20184647  0.54204572  0.71072828    -0.74700
O1226       O  0.20622216  0.98895249  0.80690027    -0.74700
O1227       O  0.21334750  0.98682280  0.71943167    -0.74800
O1228       O  0.19546986  0.54536182  0.79811749    -0.74800
O1229       O  0.14675038  0.53272594  0.78918876    -0.74700
O1230       O  0.16490956  0.97318234  0.70883280    -0.74700
O1231       O  0.15814302  0.97513048  0.79719333    -0.74700
O1232       O  0.15321716  0.52965572  0.70101825    -0.74800
Ni1233     Ni  0.20724148  0.51568547  0.75925844     1.25400
Ni1234     Ni  0.15234276  0.00248628  0.74885217     1.25400
C1235       C  0.17650173  0.54479602  0.68987678     0.87500
C1236       C  0.18371821  0.97262657  0.81797891     0.87400
C1237       C  0.19272894  0.97030399  0.70106145     0.87500
C1238       C  0.16792046  0.54933343  0.80618333     0.87600
C1239       C  0.17825640  0.62706098  0.94876863     0.86200
C1240       C  0.16797811  0.65746515  0.95793141    -0.54000
C1241       C  0.17743756  0.66853216  0.49945222     0.09200
C1242       C  0.19843799  0.64734679  0.52705890     0.20100
C1243       C  0.21257286  0.62968748  0.95319616    -0.54700
C1244       C  0.22393263  0.63931426  0.49528337     0.09300
C1245       C  0.16924783  0.60846365  0.98924618    -0.54300
C1246       C  0.18028421  0.61782536  0.53109970     0.09800
H1247       H  0.15405853  0.66906268  0.93488588     0.14400
H1248       H  0.20705353  0.65660940  0.55913775     0.00100
H1249       H  0.22697110  0.62191329  0.92806033     0.14700
H1250       H  0.15629944  0.58764947  0.48815475     0.14400
C1251       C  0.21454509  0.89408673  0.55519851     0.86200
C1252       C  0.19153781  0.86786360  0.55262972    -0.54000
C1253       C  0.19092369  0.85187159  0.01341390     0.09200
C1254       C  0.21344728  0.86473838  0.97986489     0.20100
C1255       C  0.24431558  0.88026187  0.54569335    -0.54700
C1256       C  0.24396915  0.86519037  0.00630238     0.09300
C1257       C  0.20636041  0.91218368  0.51436157    -0.54300
C1258       C  0.20569419  0.89770369  0.97368880     0.09800
H1259       H  0.17551862  0.86271273  0.57728356     0.14400
H1260       H  0.21378307  0.85226810  0.94841617     0.00100
H1261       H  0.26410127  0.88521206  0.56568589     0.14700
H1262       H  0.19774643  0.93459523  0.01470872     0.14400
O1263       O  0.34372083  0.96270946  0.78678607    -0.74700
O1264       O  0.34412955  0.52860514  0.71245073    -0.74700
O1265       O  0.34234422  0.52107518  0.80029350    -0.74800
O1266       O  0.34573233  0.97053628  0.69873563    -0.74800
O1267       O  0.29592638  0.96339715  0.69345539    -0.74700
O1268       O  0.29260421  0.51530482  0.79343256    -0.74700
O1269       O  0.29418313  0.52236659  0.70608068    -0.74700
O1270       O  0.29382019  0.95678151  0.78129108    -0.74800
Ni1271     Ni  0.34341404  0.99601081  0.74994701     1.25400
Ni1272     Ni  0.29006055  0.98907986  0.74300713     1.25400
C1273       C  0.31942420  0.94903210  0.79673532     0.87500
C1274       C  0.31843819  0.53647139  0.69746997     0.87400
C1275       C  0.31608677  0.52673354  0.81374906     0.87500
C1276       C  0.32216956  0.95834694  0.67958514     0.87600
C1277       C  0.29554388  0.60904779  0.55055107     0.86200
C1278       C  0.31529979  0.63551786  0.54008962    -0.54000
C1279       C  0.30864743  0.64754335  0.00027849     0.09200
C1280       C  0.28229722  0.63171473  0.97325865     0.20100
C1281       C  0.26335244  0.62084425  0.54720697    -0.54700
C1282       C  0.25561368  0.63241964  0.00532010     0.09300
C1283       C  0.29633688  0.58733329  0.51132869    -0.54300
C1284       C  0.29078553  0.59880441  0.96992621     0.09800
H1285       H  0.33391267  0.64343947  0.56172069     0.14400
H1286       H  0.27751391  0.64169438  0.94084818     0.00100
H1287       H  0.24663799  0.61774260  0.57171170     0.14700
H1288       H  0.30338837  0.56487338  0.01397220     0.14400
C1289       C  0.31383073  0.87394820  0.94508781     0.86200
C1290       C  0.32863022  0.84492581  0.95021047    -0.54000
C1291       C  0.32306775  0.83047315  0.48672140     0.09200
C1292       C  0.30227391  0.84781404  0.51764104     0.20100
C1293       C  0.28016958  0.86712185  0.95001186    -0.54700
C1294       C  0.27316908  0.85430141  0.48952656     0.09300
C1295       C  0.32253712  0.89223400  0.98743399    -0.54300
C1296       C  0.31795336  0.87841670  0.52541030     0.09800
H1297       H  0.34449668  0.83684404  0.92708432     0.14400
H1298       H  0.29694223  0.83492978  0.54639378     0.00100
H1299       H  0.26302220  0.87623279  0.92833231     0.14700
H1300       H  0.32991799  0.91363950  0.48123684     0.14400
O1301       O  0.46307755  0.66337654  0.78975419    -0.74700
O1302       O  0.02728859  0.66475212  0.70969917    -0.74700
O1303       O  0.02486612  0.66850344  0.79837476    -0.74800
O1304       O  0.46685172  0.65959274  0.70103232    -0.74800
O1305       O  0.46590047  0.70807394  0.69693726    -0.74700
O1306       O  0.02195442  0.71681764  0.79495125    -0.74700
O1307       O  0.02485229  0.71321788  0.70668625    -0.74700
O1308       O  0.46173060  0.71201869  0.78482619    -0.74800
Ni1309     Ni  0.49560833  0.66169245  0.75151432     1.25400
Ni1310     Ni  0.49430382  0.71362062  0.74673453     1.25400
C1311       C  0.45240338  0.68784080  0.80070954     0.87500
C1312       C  0.03672553  0.68930180  0.69538178     0.87400
C1313       C  0.03316779  0.69419039  0.81313959     0.87500
C1314       C  0.45633137  0.68268798  0.68294340     0.87600
C1315       C  0.12011792  0.70958404  0.56064876     0.86200
C1316       C  0.14699447  0.69069996  0.55420463    -0.54000
C1317       C  0.15912067  0.69390150  0.01360035     0.09200
C1318       C  0.14464091  0.71884169  0.98465877     0.20100
C1319       C  0.13206484  0.74110442  0.55572487    -0.54700
C1320       C  0.14421328  0.74653559  0.01612827     0.09300
C1321       C  0.09870477  0.70440968  0.51910105    -0.54300
C1322       C  0.11057373  0.70970898  0.97676121     0.09800
H1323       H  0.15294666  0.67365120  0.57687711     0.14400
H1324       H  0.15641954  0.72304213  0.95385290     0.00100
H1325       H  0.12766411  0.75843233  0.57866921     0.14700
H1326       H  0.07344282  0.69933442  0.01626441     0.14400
C1327       C  0.36998416  0.68784573  0.94095165     0.86200
C1328       C  0.34279381  0.66728094  0.94613423    -0.54000
C1329       C  0.32891714  0.67079898  0.48419245     0.09200
C1330       C  0.34489935  0.69520542  0.51418816     0.20100
C1331       C  0.35801250  0.71808444  0.94665794    -0.54700
C1332       C  0.34708703  0.72309291  0.48412522     0.09300
C1333       C  0.39035880  0.68217483  0.98272171    -0.54300
C1334       C  0.37758231  0.68424411  0.52142834     0.09800
H1335       H  0.33665467  0.64925449  0.92428212     0.14400
H1336       H  0.33284791  0.69910773  0.54472459     0.00100
H1337       H  0.36262930  0.73502079  0.92338796     0.14700
H1338       H  0.41354842  0.67549460  0.47940729     0.14400
O1339       O  0.47918580  0.78506780  0.80392726    -0.74700
O1340       O  0.03476461  0.78944800  0.70686968    -0.74700
O1341       O  0.03985268  0.79601014  0.79532746    -0.74800
O1342       O  0.47417483  0.77823335  0.71673237    -0.74800
O1343       O  0.46532360  0.82575825  0.70927143    -0.74700
O1344       O  0.03193427  0.84373368  0.78928916    -0.74700
O1345       O  0.02710861  0.83702146  0.70047322    -0.74700
O1346       O  0.47003763  0.83242708  0.79762853    -0.74800
Ni1347     Ni  0.50686304  0.78621954  0.75638067     1.25400
Ni1348     Ni  0.49735275  0.83701528  0.74922214     1.25400
C1349       C  0.46482711  0.80756937  0.81582895     0.87500
C1350       C  0.03951783  0.81366557  0.68696240     0.87400
C1351       C  0.04647303  0.82266560  0.80575302     0.87500
C1352       C  0.45898302  0.79885340  0.70029748     0.87600
C1353       C  0.12351054  0.81543690  0.95551386     0.86200
C1354       C  0.15191501  0.83353111  0.96299237    -0.54000
C1355       C  0.16682235  0.83006594  0.50227970     0.09200
C1356       C  0.15066520  0.80642849  0.53140382     0.20100
C1357       C  0.13227290  0.78370595  0.96175442    -0.54700
C1358       C  0.14691420  0.77787723  0.50147995     0.09300
C1359       C  0.10382205  0.82163867  0.99548745    -0.54300
C1360       C  0.11789627  0.81704592  0.53479079     0.09800
H1361       H  0.15938694  0.84932759  0.93926496     0.14400
H1362       H  0.16220755  0.80297035  0.56377471     0.00100
H1363       H  0.12489329  0.76652922  0.93862523     0.14700
H1364       H  0.08095194  0.82644818  0.49076142     0.14400
C1365       C  0.38417182  0.78701468  0.54516147     0.86200
C1366       C  0.35993652  0.80995521  0.53873226    -0.54000
C1367       C  0.34265037  0.80765280  0.00255005     0.09200
C1368       C  0.35361417  0.78286085  0.97214540     0.20100
C1369       C  0.36713414  0.75809774  0.53884457    -0.54700
C1370       C  0.35155399  0.75464101  0.00150105     0.09300
C1371       C  0.40371271  0.79133777  0.50541630    -0.54300
C1372       C  0.38793706  0.79097457  0.96753876     0.09800
H1373       H  0.35921552  0.82993060  0.55782637     0.14400
H1374       H  0.34056739  0.78098054  0.94039286     0.00100
H1375       H  0.36932960  0.74101454  0.56241998     0.14700
H1376       H  0.42669980  0.79648391  0.01109963     0.14400
C1377       C  0.44819549  0.82171802  0.89023015    -0.06000
C1378       C  0.44252681  0.80485831  0.85188816    -0.00100
C1379       C  0.41545708  0.78705871  0.84916746    -0.08700
C1380       C  0.39705554  0.78495057  0.88612902    -0.06000
C1381       C  0.40434473  0.79963056  0.92613989    -0.00100
C1382       C  0.42902017  0.82070041  0.92620648    -0.08600
C1383       C  0.43543237  0.84411778  0.96158803     0.61800
H1384       H  0.46773604  0.83655089  0.89181380     0.12500
H1385       H  0.37680581  0.77134475  0.88339885     0.12500
C1386       C  0.40338931  0.77144139  0.80759969     0.62000
F1387       F  0.44087879  0.87085495  0.94216120    -0.23100
F1388       F  0.46102318  0.83827689  0.48406245    -0.20500
F1389       F  0.41164590  0.84768772  0.98866935    -0.20100
F1390       F  0.42430455  0.76967001  0.77566900    -0.20200
F1391       F  0.37897028  0.78627017  0.79084077    -0.20500
F1392       F  0.39379104  0.74326446  0.81710503    -0.23200
C1393       C  0.44294171  0.77090031  0.63590327    -0.06000
C1394       C  0.43559723  0.79146940  0.66751002    -0.00100
C1395       C  0.40912910  0.80721585  0.66264522    -0.08700
C1396       C  0.39274797  0.80426244  0.62311286    -0.06000
C1397       C  0.40235644  0.78703686  0.58803736    -0.00100
C1398       C  0.42742474  0.76848670  0.59544811    -0.08600
C1399       C  0.44209605  0.74927969  0.56123546     0.61800
H1400       H  0.46262115  0.75798771  0.64187140     0.12500
H1401       H  0.37217970  0.81573576  0.62065451     0.12500
C1402       C  0.39719868  0.82753404  0.69730906     0.62000
F1403       F  0.45555113  0.72570978  0.58102433    -0.23500
F1404       F  0.46384238  0.76360381  0.04246134    -0.20500
F1405       F  0.42227434  0.73776633  0.52924621    -0.20100
F1406       F  0.40017870  0.85612846  0.68346830    -0.20200
F1407       F  0.41182273  0.82524160  0.73783804    -0.20500
F1408       F  0.36698845  0.82091907  0.70270934    -0.23200
C1409       C  0.09533427  0.80967146  0.83634286    -0.06000
C1410       C  0.07104316  0.82825387  0.83796987    -0.00100
C1411       C  0.06937776  0.84860087  0.87294655    -0.08700
C1412       C  0.08895914  0.84534588  0.90935033    -0.06000
C1413       C  0.10944205  0.82252373  0.91121174    -0.00100
C1414       C  0.11615227  0.80799274  0.87141430    -0.08600
C1415       C  0.14440110  0.79124586  0.86279215     0.61800
H1416       H  0.09789898  0.79607647  0.80737463     0.12500
H1417       H  0.08741619  0.85982210  0.93742888     0.12500
C1418       C  0.04641205  0.87246779  0.87314724     0.62000
F1419       F  0.15591823  0.80041704  0.82360302    -0.23100
F1420       F  0.13716532  0.76163196  0.85907739    -0.20500
F1421       F  0.16707834  0.79580283  0.89458973    -0.20100
F1422       F  0.01762465  0.86011497  0.87122897    -0.20200
F1423       F  0.05020545  0.89032628  0.83742426    -0.20500
F1424       F  0.04948714  0.88990530  0.91062199    -0.23200
C1425       C  0.07989042  0.79316685  0.58157513    -0.06000
C1426       C  0.09944025  0.81732222  0.57554543    -0.00100
C1427       C  0.09701016  0.84183106  0.60439664    -0.08700
C1428       C  0.07882116  0.83920438  0.64158449    -0.06000
C1429       C  0.05963038  0.81456426  0.64787259    -0.00100
C1430       C  0.05875479  0.79219969  0.61485699    -0.08600
C1431       C  0.03290588  0.76984616  0.61033845     0.61800
H1432       H  0.07993284  0.77547674  0.55806558     0.12500
H1433       H  0.07843977  0.85736559  0.66474030     0.12500
C1434       C  0.11115998  0.87174935  0.59628674     0.62000
F1435       F  0.03412572  0.75261964  0.57278374    -0.23100
F1436       F  0.00633125  0.78460197  0.60789979    -0.20500
F1437       F  0.03295870  0.75151051  0.64557888    -0.20100
F1438       F  0.12292161  0.87401822  0.55522501    -0.20200
F1439       F  0.13369061  0.87784846  0.62787278    -0.20500
F1440       F  0.08948445  0.89266848  0.59930262    -0.23200
C1441       C  0.38670682  0.69313977  0.60418431    -0.06000
C1442       C  0.39487759  0.67861224  0.56544273    -0.00100
C1443       C  0.42055651  0.66033252  0.56991438    -0.08700
C1444       C  0.43970648  0.66259464  0.60826552    -0.06000
C1445       C  0.43345793  0.68018117  0.64454966    -0.00100
C1446       C  0.40537144  0.69432378  0.64335810    -0.08600
C1447       C  0.39417887  0.70909865  0.68419765     0.61800
H1448       H  0.36539355  0.70367282  0.60407772     0.12500
H1449       H  0.45981568  0.64993849  0.61006500     0.12500
C1450       C  0.42810600  0.63643716  0.53732212     0.62000
F1451       F  0.36572575  0.72001137  0.67718654    -0.23100
F1452       F  0.41331711  0.73209936  0.69757763    -0.20500
F1453       F  0.39282851  0.68899362  0.71752249    -0.20100
F1454       F  0.45149528  0.64612551  0.51210946    -0.20200
F1455       F  0.40304598  0.62832975  0.01035657    -0.20500
F1456       F  0.43735545  0.61186248  0.55949796    -0.23200
C1457       C  0.40207726  0.67494254  0.82631659    -0.06000
C1458       C  0.43046060  0.68848781  0.83443369    -0.00100
C1459       C  0.43756759  0.70317106  0.87442380    -0.08700
C1460       C  0.41567102  0.70404496  0.90510627    -0.06000
C1461       C  0.38826919  0.68779298  0.89998132    -0.00100
C1462       C  0.37988716  0.67556966  0.85784386    -0.08600
C1463       C  0.34774853  0.66736079  0.84247336     0.61800
H1464       H  0.39704550  0.66464080  0.79456782     0.12500
H1465       H  0.42045426  0.71675266  0.93492342     0.12500
C1466       C  0.46892612  0.71548701  0.88669282     0.62000
F1467       F  0.34362321  0.67175633  0.79782073    -0.23100
F1468       F  0.32731655  0.68456820  0.86289436    -0.20500
F1469       F  0.34156132  0.63815576  0.85015559    -0.20100
F1470       F  0.47682602  0.73760622  0.85869955    -0.20200
F1471       F  0.48897639  0.69315287  0.88429588    -0.20500
F1472       F  0.47113444  0.72689549  0.92901179    -0.23200
C1473       C  0.05209688  0.72297401  0.88035889    -0.06000
C1474       C  0.05483820  0.69824569  0.85301623    -0.00100
C1475       C  0.07715777  0.67806626  0.86568629    -0.08700
C1476       C  0.09458679  0.68281300  0.90553572    -0.06000
C1477       C  0.09216006  0.70771619  0.93294675    -0.00100
C1478       C  0.06919273  0.72759296  0.92028771    -0.08600
C1479       C  0.05978311  0.75323178  0.94795611     0.61800
H1480       H  0.03517444  0.73859403  0.87144771     0.12500
H1481       H  0.10859122  0.66556656  0.91684767     0.12500
C1482       C  0.08289034  0.65146437  0.83735123     0.62000
F1483       F  0.06132243  0.77851448  0.92375226    -0.23100
F1484       F  0.07724792  0.75752994  0.98564503    -0.20500
F1485       F  0.03123931  0.74727223  0.46306617    -0.20100
F1486       F  0.08580122  0.65965429  0.79417714    -0.20200
F1487       F  0.05928081  0.63121726  0.83996925    -0.20500
F1488       F  0.10913571  0.63814500  0.85061746    -0.23200
C1489       C  0.08355094  0.71315431  0.67208530    -0.06000
C1490       C  0.06180838  0.69043624  0.66562713    -0.00100
C1491       C  0.06447635  0.66994884  0.63094199    -0.08700
C1492       C  0.08640827  0.67561503  0.60039163    -0.06000
C1493       C  0.10476857  0.70128415  0.60266990    -0.00100
C1494       C  0.10662432  0.71752280  0.64274291    -0.08600
C1495       C  0.13378411  0.73610822  0.65918968     0.61800
H1496       H  0.08311015  0.72698001  0.70122466     0.12500
H1497       H  0.08807949  0.66091485  0.57254610     0.12500
C1498       C  0.04337291  0.64331509  0.62426278     0.62000
F1499       F  0.14151791  0.72852688  0.70188542    -0.23100
F1500       F  0.12684875  0.76537564  0.65897794    -0.20500
F1501       F  0.15883872  0.73173852  0.63485185    -0.20100
F1502       F  0.01391246  0.65204424  0.62143533    -0.20200
F1503       F  0.04716433  0.62445668  0.65895806    -0.20500
F1504       F  0.04877975  0.62791952  0.58614015    -0.23200
C1505       C  0.31176331  0.90914950  0.64549778    -0.06000
C1506       C  0.32491322  0.93713968  0.64197799    -0.00100
C1507       C  0.34003991  0.94382181  0.60337885    -0.08700
C1508       C  0.33919936  0.92305734  0.56844080    -0.06000
C1509       C  0.32358545  0.89544302  0.56968286    -0.00100
C1510       C  0.31276453  0.88731737  0.61217346    -0.08600
C1511       C  0.30418789  0.85626204  0.62627558     0.61800
H1512       H  0.30105035  0.90418001  0.67578758     0.12500
H1513       H  0.35136036  0.92875148  0.53982970     0.12500
C1514       C  0.35585039  0.97338916  0.59824638     0.62000
F1515       F  0.30478919  0.85401479  0.67156070    -0.23100
F1516       F  0.32463928  0.83688703  0.61194915    -0.20500
F1517       F  0.27556381  0.84752966  0.61141100    -0.20100
F1518       F  0.38016512  0.97619655  0.62787865    -0.20200
F1519       F  0.33595206  0.99527567  0.60595566    -0.20500
F1520       F  0.36634913  0.97708850  0.55650440    -0.23200
C1521       C  0.34473210  0.92706540  0.86061005    -0.06000
C1522       C  0.32109835  0.92526191  0.82875355    -0.00100
C1523       C  0.29983853  0.90153203  0.82943493    -0.08700
C1524       C  0.30110436  0.88273677  0.86525164    -0.06000
C1525       C  0.32117551  0.88823299  0.90160051    -0.00100
C1526       C  0.34598702  0.90806999  0.89611409    -0.08600
C1527       C  0.37471199  0.90983866  0.92473959     0.61800
H1528       H  0.36229227  0.94394577  0.85840765     0.12500
H1529       H  0.28487634  0.86466277  0.86628488     0.12500
C1530       C  0.27501320  0.89652666  0.79419371     0.62000
F1531       F  0.39924178  0.90890271  0.89827546    -0.23100
F1532       F  0.37701550  0.88698948  0.95344655    -0.20500
F1533       F  0.37628706  0.93599398  0.94814370    -0.20100
F1534       F  0.28675422  0.89876711  0.75312167    -0.20200
F1535       F  0.25314879  0.91702800  0.79897524    -0.20500
F1536       F  0.26130078  0.86900754  0.79681414    -0.23200
C1537       C  0.28415878  0.54179973  0.87449076    -0.06000
C1538       C  0.31158584  0.54585686  0.85382032    -0.00100
C1539       C  0.33266651  0.56722180  0.87237018    -0.08700
C1540       C  0.32437145  0.58466223  0.90879328    -0.06000
C1541       C  0.29631230  0.58115126  0.92841537    -0.00100
C1542       C  0.27673185  0.55781448  0.91211246    -0.08600
C1543       C  0.24859284  0.54837266  0.93496830     0.61800
H1544       H  0.26860220  0.52480502  0.86167369     0.12500
H1545       H  0.34049772  0.60033679  0.92368637     0.12500
C1546       C  0.36385933  0.57155333  0.85454221     0.62000
F1547       F  0.23334400  0.52484783  0.91419944    -0.23100
F1548       F  0.22917101  0.57107405  0.93549461    -0.20500
F1549       F  0.25636302  0.53993735  0.97706213    -0.20100
F1550       F  0.36149896  0.57877276  0.81068292    -0.20200
F1551       F  0.37959061  0.54609873  0.85921061    -0.20500
F1552       F  0.38043480  0.59371057  0.87665996    -0.23200
C1553       C  0.33725051  0.56113608  0.63348854    -0.06000
C1554       C  0.31689171  0.56069518  0.66693655    -0.00100
C1555       C  0.29452755  0.58176197  0.66822902    -0.08700
C1556       C  0.28950772  0.59881062  0.63105223    -0.06000
C1557       C  0.30638948  0.59536943  0.59327178    -0.00100
C1558       C  0.33314597  0.57869508  0.59682289    -0.08600
C1559       C  0.35827093  0.57714512  0.56431302     0.61800
H1560       H  0.35600091  0.54651645  0.63501871     0.12500
H1561       H  0.27215708  0.61468853  0.63178979     0.12500
C1562       C  0.27688817  0.58680436  0.70906966     0.62000
F1563       F  0.35993322  0.54869787  0.54878388    -0.23100
F1564       F  0.38526321  0.58491578  0.58617163    -0.20500
F1565       F  0.35540889  0.59510609  0.52875221    -0.20100
F1566       F  0.29651027  0.58953656  0.74536786    -0.20200
F1567       F  0.25702436  0.56360371  0.71494987    -0.20500
F1568       F  0.26052611  0.61201785  0.70634945    -0.23200
C1569       C  0.21587835  0.95362395  0.88018534    -0.06000
C1570       C  0.18830259  0.95126881  0.85586352    -0.00100
C1571       C  0.16721531  0.92899082  0.86884873    -0.08700
C1572       C  0.17426221  0.91140167  0.90609361    -0.06000
C1573       C  0.20181187  0.91423374  0.93060439    -0.00100
C1574       C  0.22307906  0.93592513  0.91652728    -0.08600
C1575       C  0.25399351  0.94217591  0.93789457     0.61800
H1576       H  0.23253502  0.97001587  0.87099794     0.12500
H1577       H  0.15758156  0.89588101  0.91733555     0.12500
C1578       C  0.13739669  0.92327202  0.84377642     0.62000
F1579       F  0.27555015  0.93925824  0.90688395    -0.23100
F1580       F  0.26080412  0.92371305  0.97155753    -0.20500
F1581       F  0.25571637  0.97061302  0.95401697    -0.20100
F1582       F  0.14257830  0.91665441  0.80049782    -0.20200
F1583       F  0.11990856  0.94765695  0.84600121    -0.20500
F1584       F  0.12117436  0.89992230  0.86054418    -0.23200
C1585       C  0.20282371  0.90090633  0.63543317    -0.06000
C1586       C  0.21604980  0.91252066  0.59784299    -0.00100
C1587       C  0.22779395  0.94211400  0.60071326    -0.08700
C1588       C  0.21850200  0.96013496  0.63445468    -0.06000
C1589       C  0.20147698  0.94916754  0.66812632    -0.00100
C1590       C  0.19516222  0.91888557  0.67063834    -0.08600
C1591       C  0.18059968  0.90579493  0.71025708     0.61800
H1592       H  0.19807059  0.87768960  0.63724010     0.12500
H1593       H  0.22488266  0.98327117  0.63477896     0.12500
C1594       C  0.25002843  0.95646159  0.57053397     0.62000
F1595       F  0.17926646  0.87551160  0.70823715    -0.23100
F1596       F  0.15156604  0.91542082  0.71255827    -0.20500
F1597       F  0.19706277  0.91429643  0.74798581    -0.20100
F1598       F  0.23498590  0.97403496  0.54104088    -0.20200
F1599       F  0.26630813  0.93645894  0.54864647    -0.20500
F1600       F  0.27076087  0.97395899  0.59479397    -0.23200
C1601       C  0.14324328  0.59337794  0.90265910    -0.06000
C1602       C  0.16657982  0.61503948  0.90408686    -0.00100
C1603       C  0.18152312  0.62084255  0.86455750    -0.08700
C1604       C  0.17960131  0.59932475  0.83163616    -0.06000
C1605       C  0.16156940  0.57388256  0.83539913    -0.00100
C1606       C  0.14108223  0.57182632  0.86946465    -0.08600
C1607       C  0.11880004  0.54617381  0.87278729     0.61800
H1608       H  0.12781763  0.59225073  0.92904679     0.12500
H1609       H  0.19350915  0.60184239  0.80344494     0.12500
C1610       C  0.20003121  0.64837816  0.85467445     0.62000
F1611       F  0.10163819  0.54846120  0.90947991    -0.23100
F1612       F  0.13409098  0.52034183  0.87558307    -0.20500
F1613       F  0.09937636  0.54512252  0.83620675    -0.20100
F1614       F  0.22968925  0.64133357  0.84921016    -0.20200
F1615       F  0.19932755  0.66990949  0.88657935    -0.20500
F1616       F  0.18878146  0.66006116  0.81597180    -0.23200
C1617       C  0.18800195  0.55309526  0.61239133    -0.06000
C1618       C  0.17532277  0.56389248  0.65011890    -0.00100
C1619       C  0.16396479  0.59253681  0.64926874    -0.08700
C1620       C  0.16627194  0.60953795  0.61057347    -0.06000
C1621       C  0.17894634  0.59870364  0.57211716    -0.00100
C1622       C  0.18985299  0.56950467  0.57362075    -0.08600
C1623       C  0.20491557  0.55543644  0.53559533     0.61800
H1624       H  0.19646767  0.53114431  0.61358466     0.12500
H1625       H  0.15766841  0.63128878  0.61011221     0.12500
C1626       C  0.14959231  0.60494947  0.68930271     0.62000
F1627       F  0.22122780  0.53146548  0.54838237    -0.23100
F1628       F  0.22467915  0.57541072  0.51861786    -0.20500
F1629       F  0.18375231  0.54605348  0.50368534    -0.20100
F1630       F  0.17020139  0.60562172  0.72445798    -0.20200
F1631       F  0.12492758  0.58748075  0.69940015    -0.20500
F1632       F  0.14000089  0.63311072  0.68257587    -0.23200
O1633       O  0.70035377  0.04150650  0.21566201    -0.74700
O1634       O  0.70675007  0.48932496  0.30781323    -0.74700
O1635       O  0.71458377  0.48583664  0.22046322    -0.74800
O1636       O  0.69201602  0.04372585  0.30253831    -0.74800
O1637       O  0.64345022  0.03089193  0.29166157    -0.74700
O1638       O  0.66612843  0.47244787  0.20964173    -0.74700
O1639       O  0.65855053  0.47600400  0.29797293    -0.74700
O1640       O  0.65191844  0.02922901  0.20360406    -0.74800
Ni1641     Ni  0.70484555  0.01463199  0.26358374     1.25400
Ni1642     Ni  0.65355038  0.50259252  0.24829876     1.25400
C1643       C  0.67547683  0.04457663  0.19376739     0.87500
C1644       C  0.68398287  0.47348465  0.31921796     0.87400
C1645       C  0.69395811  0.46920349  0.20226839     0.87500
C1646       C  0.66426672  0.04744569  0.30963616     0.87600
C1647       C  0.67621677  0.12561883  0.45140636     0.86200
C1648       C  0.66535749  0.15591412  0.46036611    -0.54000
C1649       C  0.67664912  0.16835023  0.00172187     0.09200
C1650       C  0.69928444  0.14879123  0.02937033     0.20100
C1651       C  0.71062660  0.12897818  0.45442962    -0.54700
C1652       C  0.72455573  0.14144046  0.99671168     0.09300
C1653       C  0.66843498  0.10734041  0.49261455    -0.54300
C1654       C  0.68275625  0.11856706  0.03557599     0.09800
H1655       H  0.65053441  0.16692768  0.43765431     0.14400
H1656       H  0.70802352  0.15913107  0.06065738     0.00100
H1657       H  0.72472057  0.12125254  0.42888555     0.14700
H1658       H  0.66175718  0.08525223  0.99474322     0.14400
C1659       C  0.71478377  0.39292911  0.05583824     0.86200
C1660       C  0.69164696  0.36689354  0.05250109    -0.54000
C1661       C  0.69091781  0.35208991  0.51304343     0.09200
C1662       C  0.71360620  0.36508093  0.47989559     0.20100
C1663       C  0.74428160  0.37887311  0.04539882    -0.54700
C1664       C  0.74431939  0.36452088  0.50590153     0.09300
C1665       C  0.70646532  0.41189752  0.01583351    -0.54300
C1666       C  0.70647457  0.39826358  0.47499485     0.09800
H1667       H  0.67595940  0.36111368  0.07730123     0.14400
H1668       H  0.71356873  0.35313359  0.44797091     0.00100
H1669       H  0.76410261  0.38237293  0.06594441     0.14700
H1670       H  0.70089238  0.43508392  0.51751074     0.14400
O1671       O  0.84516008  0.46281154  0.28483927    -0.74700
O1672       O  0.84150899  0.02691373  0.21212183    -0.74700
O1673       O  0.83816882  0.02038781  0.30004014    -0.74800
O1674       O  0.84752553  0.46979973  0.19663045    -0.74800
O1675       O  0.79772207  0.46292197  0.19114071    -0.74700
O1676       O  0.78845854  0.01510165  0.29175025    -0.74700
O1677       O  0.79157537  0.02103109  0.20414906    -0.74700
O1678       O  0.79524531  0.45750918  0.27893351    -0.74800
Ni1679     Ni  0.84526133  0.49580275  0.24719161     1.25400
Ni1680     Ni  0.79188484  0.48919590  0.24001634     1.25400
C1681       C  0.82060518  0.44951450  0.29469430     0.87500
C1682       C  0.81612940  0.03480276  0.19597225     0.87400
C1683       C  0.81181547  0.02634808  0.31263880     0.87500
C1684       C  0.82397289  0.45758819  0.17752748     0.87600
C1685       C  0.79600912  0.10972734  0.05053084     0.86200
C1686       C  0.81650585  0.13551609  0.03941140    -0.54000
C1687       C  0.80796574  0.14673942  0.49792895     0.09200
C1688       C  0.78061187  0.13152508  0.47220706     0.20100
C1689       C  0.76424931  0.12263243  0.04801627    -0.54700
C1690       C  0.75459382  0.13332754  0.50524234     0.09300
C1691       C  0.79556030  0.08799906  0.01127893    -0.54300
C1692       C  0.78780281  0.09829586  0.46921651     0.09800
H1693       H  0.83556729  0.14294985  0.06055878     0.14400
H1694       H  0.77557411  0.14135805  0.43976295     0.00100
H1695       H  0.74783522  0.12010531  0.07303923     0.14700
H1696       H  0.79983957  0.06430096  0.51341071     0.14400
C1697       C  0.81332855  0.37343577  0.44217817     0.86200
C1698       C  0.82770194  0.34406507  0.44579685    -0.54000
C1699       C  0.82249070  0.33045206  0.98477341     0.09200
C1700       C  0.80178775  0.34773625  0.01583217     0.20100
C1701       C  0.77972375  0.36697158  0.44827819    -0.54700
C1702       C  0.77295910  0.35483913  0.98758285     0.09300
C1703       C  0.82307253  0.39118319  0.48460410    -0.54300
C1704       C  0.81816476  0.37794806  0.02427784     0.09800
H1705       H  0.84306315  0.33608882  0.42185105     0.14400
H1706       H  0.79550628  0.33497183  0.04440510     0.00100
H1707       H  0.76231407  0.37639507  0.42743170     0.14700
H1708       H  0.83060057  0.41369552  0.98148122     0.14400
O1709       O  0.96540282  0.16180700  0.28723470    -0.74700
O1710       O  0.52833896  0.16360071  0.21006285    -0.74700
O1711       O  0.52533435  0.16483123  0.29899115    -0.74800
O1712       O  0.96871324  0.15968753  0.19826602    -0.74800
O1713       O  0.96540491  0.20807165  0.19609172    -0.74700
O1714       O  0.52186511  0.21308365  0.29782054    -0.74700
O1715       O  0.52497829  0.21208889  0.20931306    -0.74700
O1716       O  0.96227375  0.21041539  0.28442362    -0.74800
Ni1717     Ni  0.99764719  0.16223811  0.24847711     1.25400
Ni1718     Ni  0.99416166  0.21409639  0.24530703     1.25400
C1719       C  0.95404375  0.18563189  0.29955097     0.87500
C1720       C  0.53715439  0.18865786  0.19670728     0.87400
C1721       C  0.53307758  0.19022247  0.31540287     0.87500
C1722       C  0.95703837  0.18256189  0.18114013     0.87600
C1723       C  0.61933977  0.21071160  0.06034007     0.86200
C1724       C  0.64607824  0.19151596  0.05489660    -0.54000
C1725       C  0.65930534  0.19430737  0.51507498     0.09200
C1726       C  0.64347644  0.21814313  0.48552843     0.20100
C1727       C  0.63158860  0.24203066  0.05480356    -0.54700
C1728       C  0.64331435  0.24671413  0.51535368     0.09300
C1729       C  0.59815203  0.20536586  0.01863847    -0.54300
C1730       C  0.60956771  0.20794742  0.48031395     0.09800
H1731       H  0.65165561  0.17452402  0.07804417     0.14400
H1732       H  0.65420737  0.22166226  0.45371304     0.00100
H1733       H  0.62702538  0.25963661  0.07709299     0.14700
H1734       H  0.57413644  0.19721400  0.52329368     0.14400
C1735       C  0.87046264  0.18531015  0.43864385     0.86200
C1736       C  0.84264106  0.16544092  0.44354164    -0.54000
C1737       C  0.82992745  0.17080439  0.98335550     0.09200
C1738       C  0.84545339  0.19540912  0.01314501     0.20100
C1739       C  0.85921628  0.21595307  0.44332782    -0.54700
C1740       C  0.84693947  0.22325229  0.98290152     0.09300
C1741       C  0.89005283  0.17963218  0.48104083    -0.54300
C1742       C  0.87828849  0.18486711  0.02022126     0.09800
H1743       H  0.83640990  0.14725392  0.42203892     0.14400
H1744       H  0.83340172  0.19905451  0.04375489     0.00100
H1745       H  0.86467336  0.23258755  0.41994569     0.14700
H1746       H  0.91453646  0.17666293  0.97827827     0.14400
O1747       O  0.98037357  0.28296729  0.29887225    -0.74700
O1748       O  0.53433685  0.28815097  0.20556321    -0.74700
O1749       O  0.54013328  0.29426437  0.29388673    -0.74800
O1750       O  0.97572680  0.27745324  0.21163305    -0.74800
O1751       O  0.96668832  0.32504775  0.20563224    -0.74700
O1752       O  0.53163637  0.34187910  0.28810655    -0.74700
O1753       O  0.52586504  0.33560180  0.19954680    -0.74700
O1754       O  0.97136687  0.33046054  0.29378290    -0.74800
Ni1755     Ni  0.00833168  0.28482248  0.25173531     1.25400
Ni1756     Ni  0.99870567  0.33571951  0.24584269     1.25400
C1757       C  0.96594435  0.30536164  0.31105310     0.87500
C1758       C  0.53864458  0.31251981  0.18582998     0.87400
C1759       C  0.54665329  0.32096948  0.30408229     0.87500
C1760       C  0.96035893  0.29824930  0.19602625     0.87600
C1761       C  0.62432603  0.31515475  0.45279160     0.86200
C1762       C  0.65254260  0.33348159  0.46119725    -0.54000
C1763       C  0.66613048  0.33041203  0.00110531     0.09200
C1764       C  0.64998764  0.30670091  0.03005476     0.20100
C1765       C  0.63312077  0.28346243  0.45960422    -0.54700
C1766       C  0.64658027  0.27820512  0.00008304     0.09300
C1767       C  0.60388074  0.32134985  0.49200123    -0.54300
C1768       C  0.61708851  0.31706828  0.03340733     0.09800
H1769       H  0.66029290  0.34926560  0.43761673     0.14400
H1770       H  0.66151308  0.30325941  0.06244335     0.00100
H1771       H  0.62577796  0.26607920  0.43678850     0.14700
H1772       H  0.58023936  0.32639876  0.98910508     0.14400
C1773       C  0.88387886  0.28707604  0.04271881     0.86200
C1774       C  0.86004872  0.31035731  0.03635694    -0.54000
C1775       C  0.84300857  0.30653863  0.49693194     0.09200
C1776       C  0.85369548  0.28135429  0.46673134     0.20100
C1777       C  0.86630668  0.25845214  0.03715268    -0.54700
C1778       C  0.85188731  0.25342256  0.49681774     0.09300
C1779       C  0.90327069  0.29087855  0.00265467    -0.54300
C1780       C  0.88806055  0.28914583  0.46137802     0.09800
H1781       H  0.85980289  0.33040793  0.05538533     0.14400
H1782       H  0.84044996  0.27915239  0.43516993     0.00100
H1783       H  0.86840183  0.24147579  0.06101187     0.14700
H1784       H  0.92711977  0.29516049  0.50408880     0.14400
C1785       C  0.94812541  0.31985955  0.38415427    -0.06000
C1786       C  0.94325403  0.30243280  0.34636614    -0.00100
C1787       C  0.91662035  0.28405769  0.34347775    -0.08700
C1788       C  0.89801698  0.28178407  0.38023860    -0.06000
C1789       C  0.90440034  0.29744319  0.41978594    -0.00100
C1790       C  0.92867054  0.31895655  0.41964029    -0.08600
C1791       C  0.93484194  0.34274185  0.45449228     0.61800
H1792       H  0.96733046  0.33506349  0.38574045     0.12500
H1793       H  0.87827090  0.26744911  0.37755763     0.12500
C1794       C  0.90561998  0.26734217  0.30230058     0.62000
F1795       F  0.93931082  0.36939695  0.43439346    -0.23100
F1796       F  0.96037288  0.33702478  0.98227108    -0.20500
F1797       F  0.91142750  0.34592605  0.48229699    -0.20100
F1798       F  0.92485724  0.26996049  0.26822875    -0.20200
F1799       F  0.87797672  0.27761977  0.28836590    -0.20500
F1800       F  0.90198713  0.23804144  0.31154214    -0.23200
C1801       C  0.94373326  0.27085521  0.13150856    -0.06000
C1802       C  0.93667295  0.29117964  0.16359568    -0.00100
C1803       C  0.90988759  0.30661857  0.15989700    -0.08700
C1804       C  0.89307343  0.30395790  0.12065874    -0.06000
C1805       C  0.90232233  0.28687502  0.08521057    -0.00100
C1806       C  0.92736317  0.26820200  0.09184522    -0.08600
C1807       C  0.94096037  0.24815231  0.05770861     0.61800
H1808       H  0.96378040  0.25822710  0.13637458     0.12500
H1809       H  0.87239568  0.31540074  0.11870978     0.12500
C1810       C  0.89775982  0.32594545  0.19564982     0.62000
F1811       F  0.95296909  0.22398794  0.07776940    -0.23500
F1812       F  0.96337307  0.26429597  0.53615005    -0.20500
F1813       F  0.92076427  0.23753581  0.02559487    -0.20100
F1814       F  0.89879316  0.35474775  0.18233346    -0.20200
F1815       F  0.91342852  0.32408944  0.23543759    -0.20500
F1816       F  0.86809934  0.31767146  0.20235630    -0.23200
C1817       C  0.59592018  0.30825201  0.33386667    -0.06000
C1818       C  0.57162727  0.32687875  0.33553495    -0.00100
C1819       C  0.57040752  0.34775443  0.36991722    -0.08700
C1820       C  0.59059927  0.34517810  0.40575008    -0.06000
C1821       C  0.61077106  0.32214117  0.40808752    -0.00100
C1822       C  0.61700455  0.30690413  0.36869821    -0.08600
C1823       C  0.64510570  0.28987182  0.36039735     0.61800
H1824       H  0.59817612  0.29426146  0.30524036     0.12500
H1825       H  0.58942199  0.36002976  0.43347507     0.12500
C1826       C  0.54693053  0.37114523  0.37061914     0.62000
F1827       F  0.65637754  0.29813322  0.32060356    -0.23100
F1828       F  0.63780918  0.26022523  0.35817475    -0.20500
F1829       F  0.66793813  0.29509980  0.39179584    -0.20100
F1830       F  0.51843938  0.35813895  0.37061926    -0.20200
F1831       F  0.54937203  0.38862320  0.33420021    -0.20500
F1832       F  0.55052199  0.38911646  0.40747059    -0.23200
C1833       C  0.57868076  0.29306859  0.07985669    -0.06000
C1834       C  0.59852803  0.31711440  0.07427130    -0.00100
C1835       C  0.59644122  0.34127318  0.10394620    -0.08700
C1836       C  0.57805454  0.33845133  0.14094303    -0.06000
C1837       C  0.55866640  0.31387107  0.14668253    -0.00100
C1838       C  0.55760937  0.29184946  0.11324430    -0.08600
C1839       C  0.53158515  0.26964692  0.10853686     0.61800
H1840       H  0.57860977  0.27550340  0.05625865     0.12500
H1841       H  0.57782369  0.35636875  0.16454666     0.12500
C1842       C  0.61116739  0.37109173  0.09705572     0.62000
F1843       F  0.53251587  0.25286309  0.07050617    -0.23100
F1844       F  0.50512234  0.28462615  0.10675619    -0.20500
F1845       F  0.53159188  0.25084934  0.14335059    -0.20100
F1846       F  0.62479130  0.37326692  0.05735273    -0.20200
F1847       F  0.63234773  0.37713255  0.13060198    -0.20500
F1848       F  0.58946136  0.39209056  0.09789311    -0.23200
C1849       C  0.88730482  0.19314036  0.10298409    -0.06000
C1850       C  0.89531810  0.17868926  0.06415295    -0.00100
C1851       C  0.92060946  0.15994822  0.06846038    -0.08700
C1852       C  0.93998585  0.16201499  0.10663936    -0.06000
C1853       C  0.93402801  0.17975734  0.14296478    -0.00100
C1854       C  0.90596767  0.19391611  0.14209788    -0.08600
C1855       C  0.89492848  0.20847480  0.18316598     0.61800
H1856       H  0.86622733  0.20408744  0.10293594     0.12500
H1857       H  0.95995076  0.14911147  0.10823775     0.12500
C1858       C  0.92734394  0.13569948  0.03601126     0.62000
F1859       F  0.86579160  0.21789897  0.17722745    -0.23100
F1860       F  0.91318451  0.23244321  0.19501473    -0.20500
F1861       F  0.89533403  0.18871508  0.21706434    -0.20100
F1862       F  0.95173690  0.14414775  0.01186547    -0.20200
F1863       F  0.90284815  0.12631384  0.51144751    -0.20500
F1864       F  0.93460951  0.11062764  0.05850635    -0.23200
C1865       C  0.90409527  0.17139988  0.32514847    -0.06000
C1866       C  0.93245611  0.18487517  0.33377271    -0.00100
C1867       C  0.93937666  0.19929257  0.37400798    -0.08700
C1868       C  0.91730755  0.20001754  0.40440951    -0.06000
C1869       C  0.88957945  0.18434127  0.39849017    -0.00100
C1870       C  0.88155730  0.17222612  0.35616410    -0.08600
C1871       C  0.84944069  0.16469735  0.33998592     0.61800
H1872       H  0.89922813  0.16143655  0.29311806     0.12500
H1873       H  0.92194085  0.21277255  0.43421337     0.12500
C1874       C  0.97044975  0.21236217  0.38622047     0.62000
F1875       F  0.84606775  0.16856323  0.29510911    -0.23100
F1876       F  0.82928913  0.18280713  0.35924576    -0.20500
F1877       F  0.84224817  0.13579151  0.34838098    -0.20100
F1878       F  0.97715493  0.23546064  0.35925355    -0.20200
F1879       F  0.99128771  0.19087710  0.38210486    -0.20500
F1880       F  0.97276023  0.22273126  0.42912395    -0.23200
C1881       C  0.55272423  0.21993861  0.38136966    -0.06000
C1882       C  0.55386528  0.19380618  0.35661023    -0.00100
C1883       C  0.57309046  0.17194495  0.37372106    -0.08700
C1884       C  0.59058593  0.17752775  0.41349181    -0.06000
C1885       C  0.59038016  0.20425461  0.43728617    -0.00100
C1886       C  0.56919620  0.22501000  0.42168810    -0.08600
C1887       C  0.56066999  0.25192726  0.44706907     0.61800
H1888       H  0.53741959  0.23648935  0.37015729     0.12500
H1889       H  0.60319698  0.16002672  0.42763607     0.12500
C1890       C  0.57515963  0.14257400  0.35055767     0.62000
F1891       F  0.56352311  0.27631690  0.42114591    -0.23100
F1892       F  0.57801071  0.25660186  0.48471882    -0.20500
F1893       F  0.53144636  0.24739002  0.96401322    -0.20100
F1894       F  0.58246579  0.14665636  0.30736566    -0.20200
F1895       F  0.54798746  0.12710862  0.35215183    -0.20500
F1896       F  0.59701903  0.12577038  0.36995923    -0.23200
C1897       C  0.58307520  0.21374935  0.17243303    -0.06000
C1898       C  0.56152665  0.19085600  0.16597110    -0.00100
C1899       C  0.56327823  0.17136910  0.12989708    -0.08700
C1900       C  0.58512641  0.17723838  0.09947943    -0.06000
C1901       C  0.60360697  0.20281970  0.10213045    -0.00100
C1902       C  0.60555773  0.21894851  0.14235591    -0.08600
C1903       C  0.63225778  0.23848772  0.15798496     0.61800
H1904       H  0.58281683  0.22719484  0.20198225     0.12500
H1905       H  0.58668691  0.16266493  0.07146093     0.12500
C1906       C  0.54109256  0.14574005  0.12146455     0.62000
F1907       F  0.63984063  0.23257145  0.20136606    -0.23100
F1908       F  0.62479166  0.26756050  0.15539269    -0.20500
F1909       F  0.65761761  0.23365590  0.13451433    -0.20100
F1910       F  0.51202027  0.15544441  0.12208346    -0.20200
F1911       F  0.54532011  0.12486437  0.15329058    -0.20500
F1912       F  0.54454514  0.13245605  0.08099612    -0.23200
C1913       C  0.81203731  0.40863003  0.14336420    -0.06000
C1914       C  0.82671888  0.43601965  0.14035727    -0.00100
C1915       C  0.84372230  0.44149557  0.10292931    -0.08700
C1916       C  0.84254427  0.42063789  0.06812444    -0.06000
C1917       C  0.82522779  0.39403158  0.06879183    -0.00100
C1918       C  0.81356673  0.38645773  0.11076368    -0.08600
C1919       C  0.80607238  0.35553781  0.12609999     0.61800
H1920       H  0.80043701  0.40392984  0.17308532     0.12500
H1921       H  0.85551094  0.42542227  0.03987046     0.12500
C1922       C  0.86164143  0.46999407  0.09841425     0.62000
F1923       F  0.81224356  0.35336029  0.17082013    -0.23100
F1924       F  0.82358203  0.33535102  0.10678657    -0.20500
F1925       F  0.77600336  0.34800912  0.11831863    -0.20100
F1926       F  0.88418607  0.47236149  0.13093416    -0.20200
F1927       F  0.84261432  0.49309347  0.10198486    -0.20500
F1928       F  0.87506515  0.47191883  0.05833358    -0.23200
C1929       C  0.84529838  0.42639680  0.35806482    -0.06000
C1930       C  0.82143599  0.42572505  0.32664800    -0.00100
C1931       C  0.79892957  0.40309392  0.32767746    -0.08700
C1932       C  0.79952639  0.38415713  0.36329330    -0.06000
C1933       C  0.82034229  0.38832669  0.39905019    -0.00100
C1934       C  0.84596479  0.40715878  0.39327569    -0.08600
C1935       C  0.87492628  0.40771814  0.42135915     0.61800
H1936       H  0.86358011  0.44251165  0.35565373     0.12500
H1937       H  0.78252877  0.36677917  0.36431706     0.12500
C1938       C  0.77364748  0.39926734  0.29277566     0.62000
F1939       F  0.89913435  0.40632517  0.39435695    -0.23100
F1940       F  0.87670041  0.38448668  0.44937730    -0.20500
F1941       F  0.87759336  0.43356299  0.44547144    -0.20100
F1942       F  0.78523113  0.40058977  0.25148300    -0.20200
F1943       F  0.75304468  0.42098632  0.29763736    -0.20500
F1944       F  0.75835949  0.37255416  0.29582825    -0.23200
C1945       C  0.77947365  0.04233861  0.37237337    -0.06000
C1946       C  0.80728018  0.04555961  0.35250206    -0.00100
C1947       C  0.82909879  0.06574263  0.37225153    -0.08700
C1948       C  0.82107691  0.08324917  0.40865452    -0.06000
C1949       C  0.79280399  0.08048187  0.42773433    -0.00100
C1950       C  0.77256940  0.05783838  0.41073086    -0.08600
C1951       C  0.74484253  0.04786743  0.43417063     0.61800
H1952       H  0.76340734  0.02604949  0.35877505     0.12500
H1953       H  0.83763308  0.09821220  0.42422601     0.12500
C1954       C  0.86088253  0.06857802  0.35601435     0.62000
F1955       F  0.72877488  0.02531216  0.41217738    -0.23100
F1956       F  0.72576115  0.07063360  0.43794832    -0.20500
F1957       F  0.75357426  0.03770026  0.47494999    -0.20100
F1958       F  0.85998188  0.07613960  0.31224657    -0.20200
F1959       F  0.87508241  0.04228688  0.36111366    -0.20500
F1960       F  0.87811383  0.08978152  0.37921067    -0.23200
C1961       C  0.83546595  0.05875264  0.13153919    -0.06000
C1962       C  0.81530120  0.05899874  0.16523414    -0.00100
C1963       C  0.79420999  0.08123646  0.16736089    -0.08700
C1964       C  0.79036592  0.09935888  0.13108337    -0.06000
C1965       C  0.80677320  0.09548406  0.09296444    -0.00100
C1966       C  0.83228264  0.07703081  0.09546476    -0.08600
C1967       C  0.85651638  0.07389396  0.06182962     0.61800
H1968       H  0.85336480  0.04318552  0.13252681     0.12500
H1969       H  0.77398691  0.11616325  0.13251850     0.12500
C1970       C  0.77615468  0.08591177  0.20781925     0.62000
F1971       F  0.85426595  0.04603565  0.04345688    -0.23100
F1972       F  0.88451484  0.07750363  0.08302275    -0.20500
F1973       F  0.85546357  0.09374829  0.02841800    -0.20100
F1974       F  0.79501309  0.08590983  0.24502557    -0.20200
F1975       F  0.75462485  0.06376487  0.21049000    -0.20500
F1976       F  0.76171865  0.11228608  0.20681858    -0.23200
C1977       C  0.71587114  0.45490146  0.38208651    -0.06000
C1978       C  0.68827692  0.45254045  0.35780314    -0.00100
C1979       C  0.66707595  0.43051754  0.37128538    -0.08700
C1980       C  0.67438890  0.41263882  0.40819018    -0.06000
C1981       C  0.70214917  0.41525359  0.43229500    -0.00100
C1982       C  0.72325414  0.43708300  0.41822714    -0.08600
C1983       C  0.75407986  0.44345093  0.43974948     0.61800
H1984       H  0.73251414  0.47124362  0.37276481     0.12500
H1985       H  0.65775058  0.39711344  0.41959572     0.12500
C1986       C  0.63665749  0.42574830  0.34751468     0.62000
F1987       F  0.77562213  0.44354641  0.40827569    -0.23100
F1988       F  0.76198859  0.42316296  0.47029059    -0.20500
F1989       F  0.75453967  0.47073528  0.45986739    -0.20100
F1990       F  0.64057539  0.41958692  0.30370214    -0.20200
F1991       F  0.61995909  0.45056948  0.35148018    -0.20500
F1992       F  0.62030282  0.40254371  0.36444049    -0.23200
C1993       C  0.70224379  0.39953344  0.13603306    -0.06000
C1994       C  0.71663802  0.41078925  0.09908971    -0.00100
C1995       C  0.72969559  0.43986759  0.10285576    -0.08700
C1996       C  0.72073871  0.45806858  0.13668535    -0.06000
C1997       C  0.70267663  0.44766656  0.16967053    -0.00100
C1998       C  0.69488344  0.41760195  0.17136653    -0.08600
C1999       C  0.67949085  0.40469647  0.21052716     0.61800
H2000       H  0.69654011  0.37649944  0.13745385     0.12500
H2001       H  0.72807827  0.48096271  0.13747436     0.12500
C2002       C  0.75277874  0.45359643  0.07324779     0.62000
F2003       F  0.67612971  0.37452678  0.20720222    -0.23100
F2004       F  0.65119965  0.41598147  0.21367841    -0.20500
F2005       F  0.69652319  0.41149796  0.24844088    -0.20100
F2006       F  0.73879299  0.47181637  0.04358188    -0.20200
F2007       F  0.76862328  0.43323308  0.05137599    -0.20500
F2008       F  0.77383899  0.47028221  0.09816202    -0.23200
C2009       C  0.64120686  0.09042640  0.40754416    -0.06000
C2010       C  0.66393589  0.11275399  0.40751462    -0.00100
C2011       C  0.67746710  0.11895233  0.36696812    -0.08700
C2012       C  0.67466911  0.09766265  0.33379603    -0.06000
C2013       C  0.65740813  0.07188921  0.33855206    -0.00100
C2014       C  0.63803369  0.06928636  0.37381382    -0.08600
C2015       C  0.61576539  0.04364112  0.37742236     0.61800
H2016       H  0.62658958  0.08882551  0.43483813     0.12500
H2017       H  0.68760068  0.10046207  0.30464009     0.12500
C2018       C  0.69592468  0.14635091  0.35628602     0.62000
F2019       F  0.59855411  0.04616707  0.41403919    -0.23100
F2020       F  0.63107283  0.01783948  0.38047014    -0.20500
F2021       F  0.59633802  0.04236179  0.34083888    -0.20100
F2022       F  0.72532814  0.13896970  0.34945543    -0.20200
F2023       F  0.69611240  0.16792892  0.38822108    -0.20500
F2024       F  0.68400933  0.15811682  0.31805566    -0.23200
C2025       C  0.69367012  0.05605338  0.12017809    -0.06000
C2026       C  0.67563049  0.06425663  0.15430863    -0.00100
C2027       C  0.66099321  0.09138487  0.15077912    -0.08700
C2028       C  0.66463990  0.10888081  0.11264694    -0.06000
C2029       C  0.68254895  0.10038513  0.07769060    -0.00100
C2030       C  0.69745008  0.07315575  0.08252021    -0.08600
C2031       C  0.71807955  0.06036057  0.04992384     0.61800
H2032       H  0.70531083  0.03560590  0.12305341     0.12500
H2033       H  0.65283360  0.12906893  0.10954530     0.12500
C2034       C  0.64193930  0.10187943  0.18746141     0.62000
F2035       F  0.74556074  0.05478105  0.07058924    -0.23100
F2036       F  0.72330718  0.07877463  0.01610710    -0.20500
F2037       F  0.70539004  0.03434324  0.03309005    -0.20100
F2038       F  0.65924440  0.10396153  0.22611577    -0.20200
F2039       F  0.61812231  0.08221515  0.19267024    -0.20500
F2040       F  0.63039394  0.12909273  0.17895491    -0.23200
O2041       O  0.70302912  0.04269683  0.71298903    -0.74700
O2042       O  0.70749651  0.48862477  0.80954609    -0.74700
O2043       O  0.71490237  0.48477832  0.72212285    -0.74800
O2044       O  0.69603788  0.04608012  0.80049396    -0.74800
O2045       O  0.64726518  0.03357249  0.79147700    -0.74700
O2046       O  0.66630435  0.47180779  0.71158976    -0.74700
O2047       O  0.65923226  0.47547579  0.79998147    -0.74700
O2048       O  0.65421908  0.03094310  0.70326387    -0.74800
Ni2049     Ni  0.70777406  0.01627696  0.76156422     1.25400
Ni2050     Ni  0.65410772  0.50197804  0.75068226     1.25400
C2051       C  0.67772368  0.04583664  0.69214102     0.87500
C2052       C  0.68465610  0.47297364  0.82107297     0.87400
C2053       C  0.69406862  0.46850678  0.70370578     0.87500
C2054       C  0.66848695  0.04976883  0.80904932     0.87600
C2055       C  0.67890893  0.12574978  0.95483963     0.86200
C2056       C  0.66698122  0.15554141  0.96358690    -0.54000
C2057       C  0.67543943  0.16809109  0.49896577     0.09200
C2058       C  0.69754525  0.14766667  0.52606175     0.20100
C2059       C  0.71309513  0.13041232  0.95784440    -0.54700
C2060       C  0.72245164  0.13977845  0.49325192     0.09300
C2061       C  0.67185471  0.10715393  0.99620498    -0.54300
C2062       C  0.68022580  0.11781731  0.53185960     0.09800
H2063       H  0.65206250  0.16622062  0.94040883     0.14400
H2064       H  0.70666699  0.15752302  0.55748754     0.00100
H2065       H  0.72739638  0.12299810  0.93234744     0.14700
H2066       H  0.65574072  0.08683381  0.49132577     0.14400
C2067       C  0.71452867  0.39332875  0.55507180     0.86200
C2068       C  0.69161784  0.36705609  0.55184837    -0.54000
C2069       C  0.69085805  0.35211331  0.01352410     0.09200
C2070       C  0.71360640  0.36494782  0.98047902     0.20100
C2071       C  0.74423769  0.37962707  0.54462621    -0.54700
C2072       C  0.74425517  0.36412814  0.00638799     0.09300
C2073       C  0.70612671  0.41215296  0.51482794    -0.54300
C2074       C  0.70674581  0.39809589  0.97603597     0.09800
H2075       H  0.67600513  0.36122011  0.57666911     0.14400
H2076       H  0.71339452  0.35312452  0.94843478     0.00100
H2077       H  0.76416653  0.38393881  0.56473767     0.14700
H2078       H  0.70107604  0.43477535  0.01862248     0.14400
O2079       O  0.84494307  0.46241228  0.78609636    -0.74700
O2080       O  0.84107553  0.03011715  0.71366313    -0.74700
O2081       O  0.83962923  0.02264204  0.80148239    -0.74800
O2082       O  0.84858459  0.46889938  0.69818014    -0.74800
O2083       O  0.79877026  0.46244426  0.69132391    -0.74700
O2084       O  0.78983379  0.01748951  0.79450675    -0.74700
O2085       O  0.79103186  0.02438358  0.70713963    -0.74700
O2086       O  0.79506193  0.45715788  0.77889002    -0.74800
Ni2087     Ni  0.84578743  0.49522963  0.74845510     1.25400
Ni2088     Ni  0.79244796  0.48894015  0.73977951     1.25400
C2089       C  0.82027493  0.44905372  0.79513425     0.87500
C2090       C  0.81548610  0.03822255  0.69848592     0.87400
C2091       C  0.81346907  0.02851588  0.81487879     0.87500
C2092       C  0.82515016  0.45671763  0.67860813     0.87600
C2093       C  0.79376808  0.10897037  0.54845015     0.86200
C2094       C  0.81421751  0.13483002  0.53747010    -0.54000
C2095       C  0.80983062  0.14758058  0.00009211     0.09200
C2096       C  0.78223458  0.13278708  0.97491255     0.20100
C2097       C  0.76199397  0.12165723  0.54504325    -0.54700
C2098       C  0.75663650  0.13471576  0.00855258     0.09300
C2099       C  0.79386706  0.08697303  0.50948184    -0.54300
C2100       C  0.78919366  0.09959272  0.97137930     0.09800
H2101       H  0.83300568  0.14244692  0.55900642     0.14400
H2102       H  0.77705579  0.14285906  0.94268180     0.00100
H2103       H  0.74532677  0.11908145  0.56970878     0.14700
H2104       H  0.80151933  0.06528270  0.01465682     0.14400
C2105       C  0.81301638  0.37309050  0.94224668     0.86200
C2106       C  0.82751950  0.34387434  0.94653577    -0.54000
C2107       C  0.82254923  0.33022146  0.48365635     0.09200
C2108       C  0.80200488  0.34746539  0.51522418     0.20100
C2109       C  0.77945521  0.36653924  0.94838571    -0.54700
C2110       C  0.77309803  0.35500959  0.48723543     0.09300
C2111       C  0.82272284  0.39123121  0.98437600    -0.54300
C2112       C  0.81844607  0.37764079  0.52424712     0.09800
H2113       H  0.84295151  0.33577378  0.92278088     0.14400
H2114       H  0.79614182  0.33434295  0.54359741     0.00100
H2115       H  0.76199909  0.37573517  0.92737493     0.14700
H2116       H  0.83075965  0.41372616  0.48214695     0.14400
O2117       O  0.96456565  0.16345090  0.78780219    -0.74700
O2118       O  0.52858374  0.16496851  0.71196901    -0.74700
O2119       O  0.52508461  0.16824927  0.80032533    -0.74800
O2120       O  0.96644484  0.16094228  0.69872497    -0.74800
O2121       O  0.96377575  0.20940274  0.69618133    -0.74700
O2122       O  0.52288899  0.21661347  0.79722298    -0.74700
O2123       O  0.52658892  0.21346217  0.70907506    -0.74700
O2124       O  0.96200905  0.21208248  0.78436628    -0.74800
Ni2125     Ni  0.99606437  0.16306665  0.74783900     1.25400
Ni2126     Ni  0.99327904  0.21499949  0.74456259     1.25400
C2127       C  0.95381726  0.18756146  0.80020757     0.87500
C2128       C  0.53840701  0.18947955  0.69797818     0.87400
C2129       C  0.53363441  0.19375124  0.81542540     0.87500
C2130       C  0.95497269  0.18391427  0.68166602     0.87600
C2131       C  0.61960868  0.21008868  0.56103837     0.86200
C2132       C  0.64680709  0.19158801  0.55443282    -0.54000
C2133       C  0.65977548  0.19439210  0.01653568     0.09200
C2134       C  0.64506919  0.21858958  0.98617902     0.20100
C2135       C  0.63066674  0.24165853  0.55443395    -0.54700
C2136       C  0.64482951  0.24709203  0.01605881     0.09300
C2137       C  0.59766878  0.20375660  0.52038792    -0.54300
C2138       C  0.61096242  0.20937612  0.97930911     0.09800
H2139       H  0.65331077  0.17490507  0.57747511     0.14400
H2140       H  0.65662169  0.22195499  0.95497261     0.00100
H2141       H  0.62590428  0.25936011  0.57647098     0.14700
H2142       H  0.57426864  0.19986315  0.02024685     0.14400
C2143       C  0.87061521  0.18718107  0.93886625     0.86200
C2144       C  0.84346134  0.16659970  0.94461215    -0.54000
C2145       C  0.82851014  0.17000721  0.48170964     0.09200
C2146       C  0.84430775  0.19444392  0.51196742     0.20100
C2147       C  0.85834110  0.21735314  0.94387232    -0.54700
C2148       C  0.84708673  0.22224381  0.48178199     0.09300
C2149       C  0.89111387  0.18196040  0.98063960    -0.54300
C2150       C  0.87686301  0.18327184  0.52018286     0.09800
H2151       H  0.83709211  0.14847421  0.92313110     0.14400
H2152       H  0.83192669  0.19853908  0.54214609     0.00100
H2153       H  0.86257776  0.23411233  0.92003540     0.14700
H2154       H  0.91333790  0.17388407  0.47937731     0.14400
O2155       O  0.97981417  0.28523620  0.79968326    -0.74700
O2156       O  0.53344594  0.28817278  0.70496294    -0.74700
O2157       O  0.53978232  0.29441075  0.79344545    -0.74800
O2158       O  0.97488943  0.27907751  0.71235652    -0.74800
O2159       O  0.96631218  0.32670146  0.70575199    -0.74700
O2160       O  0.53134679  0.34204605  0.78802892    -0.74700
O2161       O  0.52536158  0.33570063  0.69925010    -0.74700
O2162       O  0.97122869  0.33276098  0.79430109    -0.74800
Ni2163     Ni  0.00765273  0.28646062  0.75220295     1.25400
Ni2164     Ni  0.99850111  0.33739995  0.74594653     1.25400
C2165       C  0.96568558  0.30781462  0.81198521     0.87500
C2166       C  0.53794314  0.31253502  0.68529197     0.87400
C2167       C  0.54630935  0.32107827  0.80397194     0.87500
C2168       C  0.95985008  0.29989552  0.69615538     0.87600
C2169       C  0.62411894  0.31528369  0.95344523     0.86200
C2170       C  0.65213089  0.33399576  0.96172816    -0.54000
C2171       C  0.66626601  0.33005587  0.50075853     0.09200
C2172       C  0.64964279  0.30646415  0.52967541     0.20100
C2173       C  0.63348667  0.28366717  0.96006948    -0.54700
C2174       C  0.64590292  0.27787272  0.49968597     0.09300
C2175       C  0.60384429  0.32116948  0.99289120    -0.54300
C2176       C  0.61680882  0.31716915  0.53271538     0.09800
H2177       H  0.65957770  0.35003650  0.93827545     0.14400
H2178       H  0.66096401  0.30291702  0.56217519     0.00100
H2179       H  0.62652022  0.26625875  0.93705190     0.14700
H2180       H  0.58033754  0.32674244  0.48787504     0.14400
C2181       C  0.88399095  0.28662460  0.54128127     0.86200
C2182       C  0.85998915  0.30977226  0.53465893    -0.54000
C2183       C  0.84313528  0.30719676  0.99845397     0.09200
C2184       C  0.85384903  0.28222913  0.96808560     0.20100
C2185       C  0.86655174  0.25781161  0.53596419    -0.54700
C2186       C  0.85180750  0.25428010  0.99797678     0.09300
C2187       C  0.90322277  0.29017308  0.50102520    -0.54300
C2188       C  0.88823395  0.29008218  0.96294586     0.09800
H2189       H  0.85947737  0.32992649  0.55339417     0.14400
H2190       H  0.84062682  0.28019750  0.93648758     0.00100
H2191       H  0.86889505  0.24088041  0.55986275     0.14700
H2192       H  0.92723832  0.29557771  0.00598011     0.14400
C2193       C  0.94803889  0.32203484  0.88590652    -0.06000
C2194       C  0.94299104  0.30506089  0.84756684    -0.00100
C2195       C  0.91632663  0.28671275  0.84460230    -0.08700
C2196       C  0.89814517  0.28364095  0.88168692    -0.06000
C2197       C  0.90461187  0.29884338  0.92154807    -0.00100
C2198       C  0.92875188  0.32053760  0.92172127    -0.08600
C2199       C  0.93486740  0.34376628  0.95749893     0.61800
H2200       H  0.96725063  0.33724617  0.88773203     0.12500
H2201       H  0.87854863  0.26906390  0.87896763     0.12500
C2202       C  0.90474928  0.27093720  0.80292889     0.62000
F2203       F  0.93995662  0.37071426  0.93856835    -0.23100
F2204       F  0.96077130  0.33668166  0.47879191    -0.20500
F2205       F  0.91111451  0.34680169  0.98477214    -0.20100
F2206       F  0.92305093  0.27507395  0.76806910    -0.20200
F2207       F  0.87658243  0.28097860  0.79112382    -0.20500
F2208       F  0.90202036  0.24130627  0.81035614    -0.23200
C2209       C  0.94357848  0.27174186  0.63180131    -0.06000
C2210       C  0.93649213  0.29274169  0.66303639    -0.00100
C2211       C  0.91009614  0.30861913  0.65784633    -0.08700
C2212       C  0.89353515  0.30521126  0.61851583    -0.06000
C2213       C  0.90259339  0.28720327  0.58395647    -0.00100
C2214       C  0.92761239  0.26865199  0.59169562    -0.08600
C2215       C  0.94164034  0.24860389  0.55794708     0.61800
H2216       H  0.96350778  0.25909629  0.63757306     0.12500
H2217       H  0.87311450  0.31688044  0.61598522     0.12500
C2218       C  0.89806656  0.32933836  0.69194471     0.62000
F2219       F  0.95569978  0.22564679  0.57850274    -0.23500
F2220       F  0.96417725  0.26315215  0.03807744    -0.20500
F2221       F  0.92113276  0.23620822  0.52764166    -0.20100
F2222       F  0.90050338  0.35771900  0.67700390    -0.20200
F2223       F  0.91282276  0.32796280  0.73248590    -0.20500
F2224       F  0.86797542  0.32240317  0.69781805    -0.23200
C2225       C  0.59543637  0.30823053  0.83454639    -0.06000
C2226       C  0.57113583  0.32685980  0.83589855    -0.00100
C2227       C  0.56989300  0.34780751  0.87022219    -0.08700
C2228       C  0.58964584  0.34493828  0.90658185    -0.06000
C2229       C  0.61010479  0.32211233  0.90888674    -0.00100
C2230       C  0.61660877  0.30721589  0.86935109    -0.08600
C2231       C  0.64537444  0.29142155  0.86049656     0.61800
H2232       H  0.59791496  0.29433105  0.80588406     0.12500
H2233       H  0.58823139  0.35968746  0.93438077     0.12500
C2234       C  0.54729091  0.37202524  0.86977845     0.62000
F2235       F  0.65654987  0.30123106  0.82141882    -0.23100
F2236       F  0.63913022  0.26165127  0.85643345    -0.20500
F2237       F  0.66790218  0.29650470  0.89238295    -0.20100
F2238       F  0.51830292  0.36012926  0.86861877    -0.20200
F2239       F  0.55120120  0.38922713  0.83335854    -0.20500
F2240       F  0.55084074  0.39004476  0.90658448    -0.23200
C2241       C  0.57752504  0.29346657  0.57829444    -0.06000
C2242       C  0.59787672  0.31720054  0.57334275    -0.00100
C2243       C  0.59648299  0.34091298  0.60397988    -0.08700
C2244       C  0.57798122  0.33803996  0.64088620    -0.06000
C2245       C  0.55802950  0.31380655  0.64602475    -0.00100
C2246       C  0.55674058  0.29201417  0.61214973    -0.08600
C2247       C  0.53112638  0.26937556  0.60812381     0.61800
H2248       H  0.57712783  0.27620373  0.55412512     0.12500
H2249       H  0.57826355  0.35561929  0.66510953     0.12500
C2250       C  0.61256793  0.37022535  0.59852187     0.62000
F2251       F  0.53173044  0.25275240  0.56989275    -0.23100
F2252       F  0.50435047  0.28379054  0.60753454    -0.20500
F2253       F  0.53223888  0.25049269  0.64278699    -0.20100
F2254       F  0.62425854  0.37337710  0.55755610    -0.20200
F2255       F  0.63548240  0.37352112  0.63027862    -0.20500
F2256       F  0.59252606  0.39240909  0.60390843    -0.23200
C2257       C  0.88518190  0.19272824  0.60290282    -0.06000
C2258       C  0.89370272  0.17794470  0.56457361    -0.00100
C2259       C  0.91963439  0.16005987  0.56959648    -0.08700
C2260       C  0.93898536  0.16337041  0.60751286    -0.06000
C2261       C  0.93219631  0.18098830  0.64344148    -0.00100
C2262       C  0.90370154  0.19433891  0.64218890    -0.08600
C2263       C  0.89218086  0.20897310  0.68289080     0.61800
H2264       H  0.86386779  0.20330894  0.60225691     0.12500
H2265       H  0.95963647  0.15140629  0.60941314     0.12500
C2266       C  0.92714018  0.13533838  0.53846260     0.62000
F2267       F  0.86280312  0.21767343  0.67650713    -0.23100
F2268       F  0.90990016  0.23341182  0.69437318    -0.20500
F2269       F  0.89291739  0.18953540  0.71722521    -0.20100
F2270       F  0.95103507  0.14404690  0.51348731    -0.20200
F2271       F  0.90301289  0.12820151  0.00810753    -0.20500
F2272       F  0.93563489  0.11116657  0.56227885    -0.23200
C2273       C  0.90456230  0.17260778  0.82625809    -0.06000
C2274       C  0.93230746  0.18738288  0.83432391    -0.00100
C2275       C  0.93833129  0.20362098  0.87332461    -0.08700
C2276       C  0.91598922  0.20431680  0.90332196    -0.06000
C2277       C  0.88918626  0.18703685  0.89828425    -0.00100
C2278       C  0.88186343  0.17338039  0.85686260    -0.08600
C2279       C  0.85015123  0.16411762  0.84085740     0.61800
H2280       H  0.90029713  0.16149989  0.79490335     0.12500
H2281       H  0.91991846  0.21771692  0.93266224     0.12500
C2282       C  0.96888779  0.21811805  0.88538699     0.62000
F2283       F  0.84678679  0.16665507  0.79572999    -0.23100
F2284       F  0.82908332  0.18178228  0.85889265    -0.20500
F2285       F  0.84425950  0.13525168  0.85087691    -0.20100
F2286       F  0.97617799  0.23932891  0.85561263    -0.20200
F2287       F  0.99035774  0.19696329  0.88605974    -0.20500
F2288       F  0.96965375  0.23153151  0.92642129    -0.23200
C2289       C  0.55239093  0.22224121  0.88280487    -0.06000
C2290       C  0.55492844  0.19734772  0.85579064    -0.00100
C2291       C  0.57651558  0.17662381  0.86942489    -0.08700
C2292       C  0.59381990  0.18148491  0.90932751    -0.06000
C2293       C  0.59214561  0.20688856  0.93582399    -0.00100
C2294       C  0.56951458  0.22697895  0.92262838    -0.08600
C2295       C  0.56027173  0.25275668  0.94999067     0.61800
H2296       H  0.53567123  0.23801311  0.87358058     0.12500
H2297       H  0.60731850  0.16390439  0.92148881     0.12500
C2298       C  0.58181310  0.14949991  0.84192458     0.62000
F2299       F  0.56032211  0.27774683  0.92498147    -0.23100
F2300       F  0.57893439  0.25796369  0.98611252    -0.20500
F2301       F  0.53096672  0.24875757  0.45849574    -0.20100
F2302       F  0.58722591  0.15742969  0.79927278    -0.20200
F2303       F  0.55691525  0.13061371  0.84221626    -0.20500
F2304       F  0.60644713  0.13454555  0.85774432    -0.23200
C2305       C  0.58380967  0.21486712  0.67286349    -0.06000
C2306       C  0.56369867  0.19064343  0.66856585    -0.00100
C2307       C  0.56786783  0.16912418  0.63577682    -0.08700
C2308       C  0.58873790  0.17546845  0.60391983    -0.06000
C2309       C  0.60525605  0.20226138  0.60398504    -0.00100
C2310       C  0.60633941  0.21976155  0.64290028    -0.08600
C2311       C  0.63215067  0.24063517  0.65774092     0.61800
H2312       H  0.58249712  0.22965244  0.70079463     0.12500
H2313       H  0.59101739  0.16023672  0.57686406     0.12500
C2314       C  0.54972168  0.14036201  0.63277063     0.62000
F2315       F  0.64046727  0.23514754  0.70101295    -0.23100
F2316       F  0.62302700  0.26922352  0.65520909    -0.20500
F2317       F  0.65755266  0.23713448  0.63381710    -0.20100
F2318       F  0.51931126  0.14571715  0.62868862    -0.20200
F2319       F  0.55553616  0.12423021  0.67002608    -0.20500
F2320       F  0.55703988  0.12347498  0.59697548    -0.23200
C2321       C  0.81319542  0.40761090  0.64433037    -0.06000
C2322       C  0.82803804  0.43497688  0.64158539    -0.00100
C2323       C  0.84479521  0.44058134  0.60402122    -0.08700
C2324       C  0.84300227  0.42008179  0.56869839    -0.06000
C2325       C  0.82529255  0.39364356  0.56894393    -0.00100
C2326       C  0.81375256  0.38578786  0.61090670    -0.08600
C2327       C  0.80500320  0.35474729  0.62465070     0.61800
H2328       H  0.80170998  0.40291860  0.67409551     0.12500
H2329       H  0.85596788  0.42495197  0.54047300     0.12500
C2330       C  0.86349453  0.46870615  0.60033220     0.62000
F2331       F  0.80731192  0.35207225  0.66984705    -0.23100
F2332       F  0.82429292  0.33499381  0.60809669    -0.20500
F2333       F  0.77576326  0.34688757  0.61166564    -0.20100
F2334       F  0.88658450  0.46956365  0.63211934    -0.20200
F2335       F  0.84544243  0.49236658  0.60601521    -0.20500
F2336       F  0.87623317  0.47118323  0.55982211    -0.23200
C2337       C  0.84496276  0.42561521  0.85799993    -0.06000
C2338       C  0.82103407  0.42506782  0.82672592    -0.00100
C2339       C  0.79878130  0.40219517  0.82732030    -0.08700
C2340       C  0.79931026  0.38325316  0.86299895    -0.06000
C2341       C  0.82008285  0.38753500  0.89884085    -0.00100
C2342       C  0.84573444  0.40626066  0.89295982    -0.08600
C2343       C  0.87489260  0.40661472  0.92051833     0.61800
H2344       H  0.86327014  0.44171532  0.85569431     0.12500
H2345       H  0.78228650  0.36589524  0.86405938     0.12500
C2346       C  0.77401317  0.39805660  0.79176362     0.62000
F2347       F  0.89869095  0.40384684  0.89303940    -0.23100
F2348       F  0.87630940  0.38408165  0.94977988    -0.20500
F2349       F  0.87853594  0.43295542  0.94322167    -0.20100
F2350       F  0.78620388  0.39945705  0.75089639    -0.20200
F2351       F  0.75310596  0.41956401  0.79582463    -0.20500
F2352       F  0.75899760  0.37117743  0.79449478    -0.23200
C2353       C  0.78142435  0.04395634  0.87468788    -0.06000
C2354       C  0.80923276  0.04736951  0.85499355    -0.00100
C2355       C  0.83099822  0.06750261  0.87486442    -0.08700
C2356       C  0.82279290  0.08490769  0.91123361    -0.06000
C2357       C  0.79433432  0.08213722  0.92981473    -0.00100
C2358       C  0.77425046  0.05943545  0.91273485    -0.08600
C2359       C  0.74617246  0.04957353  0.93538495     0.61800
H2360       H  0.76538766  0.02769981  0.86094397     0.12500
H2361       H  0.83931759  0.09974326  0.92716419     0.12500
C2362       C  0.86285550  0.07030933  0.85888434     0.62000
F2363       F  0.73120673  0.02595423  0.91443770    -0.23100
F2364       F  0.72638065  0.07193391  0.93604220    -0.20500
F2365       F  0.75411423  0.04092230  0.97726746    -0.20100
F2366       F  0.86216145  0.07797043  0.81515697    -0.20200
F2367       F  0.87694028  0.04396059  0.86392324    -0.20500
F2368       F  0.88006268  0.09141774  0.88234086    -0.23200
C2369       C  0.83435149  0.06133568  0.63348992    -0.06000
C2370       C  0.81442973  0.06232682  0.66752610    -0.00100
C2371       C  0.79238828  0.08382412  0.66755142    -0.08700
C2372       C  0.78744967  0.09983092  0.62932810    -0.06000
C2373       C  0.80416308  0.09537164  0.59161263    -0.00100
C2374       C  0.83037145  0.07795893  0.59574068    -0.08600
C2375       C  0.85452964  0.07405748  0.56216968     0.61800
H2376       H  0.85260372  0.04614937  0.63538330     0.12500
H2377       H  0.77048543  0.11616218  0.62989831     0.12500
C2378       C  0.77429203  0.09160228  0.70692817     0.62000
F2379       F  0.85239275  0.04572687  0.54559863    -0.23100
F2380       F  0.88260504  0.07840758  0.58290752    -0.20500
F2381       F  0.85325352  0.09293979  0.52751589    -0.20100
F2382       F  0.78235400  0.07627933  0.74408467    -0.20200
F2383       F  0.74405154  0.08624403  0.69679823    -0.20500
F2384       F  0.77879787  0.12110343  0.71667776    -0.23200
C2385       C  0.71712541  0.45309000  0.88182936    -0.06000
C2386       C  0.68879777  0.45216365  0.85950172    -0.00100
C2387       C  0.66649276  0.43204205  0.87518608    -0.08700
C2388       C  0.67382241  0.41392429  0.91166149    -0.06000
C2389       C  0.70232980  0.41507143  0.93372689    -0.00100
C2390       C  0.72420390  0.43563059  0.91833395    -0.08600
C2391       C  0.75543049  0.44130889  0.93890844     0.61800
H2392       H  0.73443489  0.46832804  0.87115929     0.12500
H2393       H  0.65671762  0.39945612  0.92450034     0.12500
C2394       C  0.63482381  0.42984794  0.85463678     0.62000
F2395       F  0.77657944  0.43809793  0.90739599    -0.23100
F2396       F  0.76224843  0.42270141  0.97231916    -0.20500
F2397       F  0.75778647  0.46970613  0.95515874    -0.20100
F2398       F  0.63586819  0.42185094  0.81087344    -0.20200
F2399       F  0.62127316  0.45652223  0.85840399    -0.20500
F2400       F  0.61694336  0.40916100  0.87492713    -0.23200
C2401       C  0.70225902  0.39947188  0.63578040    -0.06000
C2402       C  0.71617350  0.41111519  0.59858949    -0.00100
C2403       C  0.72889328  0.44031198  0.60267125    -0.08700
C2404       C  0.72011038  0.45816315  0.63706370    -0.06000
C2405       C  0.70248977  0.44736435  0.67027820    -0.00100
C2406       C  0.69507292  0.41724252  0.67164985    -0.08600
C2407       C  0.68014275  0.40408354  0.71103418     0.61800
H2408       H  0.69679478  0.37637919  0.63701073     0.12500
H2409       H  0.72735855  0.48108332  0.63820208     0.12500
C2410       C  0.75158735  0.45459478  0.57308321     0.62000
F2411       F  0.67827208  0.37382839  0.70843411    -0.23100
F2412       F  0.65130590  0.41420008  0.71367842    -0.20500
F2413       F  0.69665756  0.41197970  0.74898821    -0.20100
F2414       F  0.73729163  0.47410771  0.54574507    -0.20200
F2415       F  0.76643019  0.43480057  0.54867145    -0.20500
F2416       F  0.77350808  0.46997108  0.59832468    -0.23200
C2417       C  0.64557941  0.08969835  0.91013666    -0.06000
C2418       C  0.66734180  0.11285705  0.91066249    -0.00100
C2419       C  0.68052128  0.12028538  0.87023175    -0.08700
C2420       C  0.67864077  0.09944163  0.83637675    -0.06000
C2421       C  0.66202667  0.07321189  0.83997880    -0.00100
C2422       C  0.64309172  0.06913352  0.87557781    -0.08600
C2423       C  0.62209027  0.04243359  0.87867040     0.61800
H2424       H  0.63153178  0.08679951  0.93787442     0.12500
H2425       H  0.69138414  0.10320703  0.80728763     0.12500
C2426       C  0.69749164  0.14870390  0.86014631     0.62000
F2427       F  0.60616475  0.04279765  0.91673610    -0.23100
F2428       F  0.63851876  0.01724909  0.87839468    -0.20500
F2429       F  0.60145997  0.04166881  0.84348392    -0.20100
F2430       F  0.72737830  0.14305020  0.85368390    -0.20200
F2431       F  0.69626669  0.17003837  0.89220875    -0.20500
F2432       F  0.68511312  0.16004599  0.82188815    -0.23200
C2433       C  0.68922553  0.05390778  0.61447896    -0.06000
C2434       C  0.67679840  0.06496652  0.65226200    -0.00100
C2435       C  0.66556585  0.09369229  0.65109752    -0.08700
C2436       C  0.66746212  0.11033863  0.61196620    -0.06000
C2437       C  0.67977592  0.09918203  0.57346310    -0.00100
C2438       C  0.69075048  0.06998544  0.57531757    -0.08600
C2439       C  0.70544280  0.05549277  0.53721725     0.61800
H2440       H  0.69765218  0.03194891  0.61590707     0.12500
H2441       H  0.65892742  0.13213636  0.61121885     0.12500
C2442       C  0.65214124  0.10678229  0.69140877     0.62000
F2443       F  0.72147958  0.03134903  0.55004839    -0.23100
F2444       F  0.72536272  0.07508444  0.51974766    -0.20500
F2445       F  0.68408932  0.04618090  0.50555599    -0.20100
F2446       F  0.67401590  0.10929488  0.72485098    -0.20200
F2447       F  0.62866180  0.08887960  0.70470170    -0.20500
F2448       F  0.64109530  0.13427486  0.68348985    -0.23200
O2449       O  0.70074133  0.54284947  0.21054579    -0.74700
O2450       O  0.70612596  0.98678311  0.31050262    -0.74700
O2451       O  0.71454530  0.98472868  0.22352911    -0.74800
O2452       O  0.69301157  0.54637784  0.29777635    -0.74800
O2453       O  0.64437946  0.53369370  0.28766889    -0.74700
O2454       O  0.66615246  0.97145503  0.21140361    -0.74700
O2455       O  0.65806673  0.97318241  0.29955809    -0.74700
O2456       O  0.65232873  0.53018635  0.19939568    -0.74800
Ni2457     Ni  0.70537639  0.51653223  0.25959237     1.25400
Ni2458     Ni  0.65308242  0.00066598  0.25116713     1.25400
C2459       C  0.67571616  0.54554221  0.18879552     0.87500
C2460       C  0.68344146  0.97053246  0.32085622     0.87400
C2461       C  0.69406046  0.96845400  0.20431866     0.87500
C2462       C  0.66534368  0.55024292  0.30531579     0.87600
C2463       C  0.67745894  0.62516165  0.45123446     0.86200
C2464       C  0.66686697  0.65547875  0.46043409    -0.54000
C2465       C  0.67561644  0.67041294  0.99789710     0.09200
C2466       C  0.69734864  0.64951629  0.02484940     0.20100
C2467       C  0.71172780  0.62826773  0.45451832    -0.54700
C2468       C  0.72248047  0.64189801  0.99223899     0.09300
C2469       C  0.66945707  0.60651934  0.49216372    -0.54300
C2470       C  0.67977711  0.61972986  0.02965119     0.09800
H2471       H  0.65281843  0.66702510  0.43739125     0.14400
H2472       H  0.70634858  0.65898955  0.05659610     0.00100
H2473       H  0.72582372  0.62038478  0.42904866     0.14700
H2474       H  0.65589782  0.58916626  0.98721922     0.14400
C2475       C  0.71465347  0.89402156  0.05567261     0.86200
C2476       C  0.69110283  0.86829982  0.05217480    -0.54000
C2477       C  0.69061409  0.84970721  0.51507406     0.09200
C2478       C  0.71339571  0.86262645  0.48205061     0.20100
C2479       C  0.74421097  0.87973812  0.04608897    -0.54700
C2480       C  0.74368093  0.86352043  0.50895193     0.09300
C2481       C  0.70698009  0.91268694  0.01521167    -0.54300
C2482       C  0.70525058  0.89537921  0.47544320     0.09800
H2483       H  0.67439594  0.86353382  0.07609660     0.14400
H2484       H  0.71416130  0.85005985  0.45073924     0.00100
H2485       H  0.76394580  0.88386917  0.06659666     0.14700
H2486       H  0.69558852  0.93205514  0.51571386     0.14400
O2487       O  0.84323758  0.96181839  0.28816801    -0.74700
O2488       O  0.84165603  0.52840931  0.20936257    -0.74700
O2489       O  0.83935895  0.52135301  0.29722727    -0.74800
O2490       O  0.84632889  0.96822459  0.20037451    -0.74800
O2491       O  0.79643476  0.96217573  0.19386874    -0.74700
O2492       O  0.78963509  0.51562225  0.28937064    -0.74700
O2493       O  0.79180588  0.52150315  0.20188457    -0.74700
O2494       O  0.79331372  0.95670906  0.28155995    -0.74800
Ni2495     Ni  0.84411149  0.99452544  0.25038622     1.25400
Ni2496     Ni  0.79069273  0.98859792  0.24247550     1.25400
C2497       C  0.81857813  0.94867049  0.29776619     0.87500
C2498       C  0.81596107  0.53582462  0.19363744     0.87400
C2499       C  0.81299101  0.52706689  0.31001804     0.87500
C2500       C  0.82272642  0.95635384  0.18098066     0.87600
C2501       C  0.79285394  0.60840149  0.04607808     0.86200
C2502       C  0.81345424  0.63458056  0.03710607    -0.54000
C2503       C  0.80825967  0.64649722  0.49788790     0.09200
C2504       C  0.78125100  0.63127897  0.47161875     0.20100
C2505       C  0.76108495  0.62108851  0.04313663    -0.54700
C2506       C  0.75539672  0.63205903  0.50493108     0.09300
C2507       C  0.79303549  0.58747208  0.00584223    -0.54300
C2508       C  0.78898366  0.59821603  0.46714757     0.09800
H2509       H  0.83216357  0.64157820  0.05924962     0.14400
H2510       H  0.77594584  0.64168564  0.43967787     0.00100
H2511       H  0.74427987  0.61789486  0.06748271     0.14700
H2512       H  0.80185131  0.56365638  0.50975411     0.14400
C2513       C  0.81283090  0.87355850  0.44609869     0.86200
C2514       C  0.82831620  0.84494820  0.45119545    -0.54000
C2515       C  0.82319824  0.83081652  0.98663295     0.09200
C2516       C  0.80211689  0.84759952  0.01767388     0.20100
C2517       C  0.77939735  0.86602225  0.45188633    -0.54700
C2518       C  0.77332460  0.85487615  0.98924456     0.09300
C2519       C  0.82145806  0.89234838  0.48780177    -0.54300
C2520       C  0.81812052  0.87783432  0.02696425     0.09800
H2521       H  0.84384690  0.83687556  0.42756389     0.14400
H2522       H  0.79631746  0.83430341  0.04586947     0.00100
H2523       H  0.76181465  0.87455169  0.43040107     0.14700
H2524       H  0.83002050  0.91425494  0.98514088     0.14400
O2525       O  0.96492859  0.66062488  0.29084055    -0.74700
O2526       O  0.52895981  0.66349622  0.21154582    -0.74700
O2527       O  0.52571553  0.66685418  0.30009108    -0.74800
O2528       O  0.96633453  0.65872074  0.20171501    -0.74800
O2529       O  0.96400813  0.70717280  0.19961480    -0.74700
O2530       O  0.52309920  0.71522469  0.29709053    -0.74700
O2531       O  0.52676679  0.71203304  0.20896307    -0.74700
O2532       O  0.96216117  0.70926728  0.28781435    -0.74800
Ni2533     Ni  0.99641892  0.66065068  0.25064209     1.25400
Ni2534     Ni  0.99356836  0.71257426  0.24804089     1.25400
C2535       C  0.95375577  0.68458751  0.30303050     0.87500
C2536       C  0.53858649  0.68810169  0.19768504     0.87400
C2537       C  0.53396402  0.69245434  0.31529183     0.87500
C2538       C  0.95477167  0.68182105  0.18503284     0.87600
C2539       C  0.61946325  0.71077365  0.06162683     0.86200
C2540       C  0.64635617  0.69227122  0.05384932    -0.54000
C2541       C  0.65955441  0.69289636  0.51550917     0.09200
C2542       C  0.64387389  0.71709280  0.48642861     0.20100
C2543       C  0.63095269  0.74248021  0.05684930    -0.54700
C2544       C  0.64328403  0.74511454  0.51709116     0.09300
C2545       C  0.59736577  0.70570598  0.02076810    -0.54300
C2546       C  0.61002075  0.70709499  0.48024377     0.09800
H2547       H  0.65269256  0.67498420  0.07589114     0.14400
H2548       H  0.65490731  0.72119769  0.45499437     0.00100
H2549       H  0.62693235  0.75955712  0.08042502     0.14700
H2550       H  0.57407196  0.69591633  0.52187684     0.14400
C2551       C  0.86975005  0.68732799  0.44066105     0.86200
C2552       C  0.84226172  0.66701735  0.44456218    -0.54000
C2553       C  0.82834482  0.67105705  0.98371151     0.09200
C2554       C  0.84379227  0.69541370  0.01457472     0.20100
C2555       C  0.85805960  0.71759773  0.44622726    -0.54700
C2556       C  0.84660148  0.72337988  0.98455534     0.09300
C2557       C  0.88932446  0.68134624  0.48300763    -0.54300
C2558       C  0.87641162  0.68445034  0.02318173     0.09800
H2559       H  0.83642990  0.64923821  0.42208235     0.14400
H2560       H  0.83123985  0.69923250  0.04469824     0.00100
H2561       H  0.86343841  0.73474533  0.42316192     0.14700
H2562       H  0.91324884  0.67557781  0.98272556     0.14400
O2563       O  0.97917958  0.78279674  0.30377873    -0.74700
O2564       O  0.53549066  0.79206330  0.20792254    -0.74700
O2565       O  0.54048804  0.79797626  0.29608804    -0.74800
O2566       O  0.97472110  0.77648494  0.21621594    -0.74800
O2567       O  0.96614776  0.82412974  0.20962593    -0.74700
O2568       O  0.53186154  0.84561275  0.29072721    -0.74700
O2569       O  0.52650163  0.83936563  0.20183903    -0.74700
O2570       O  0.97068730  0.83034940  0.29800618    -0.74800
Ni2571     Ni  0.00723903  0.78397777  0.25660720     1.25400
Ni2572     Ni  0.99815266  0.83491711  0.24994106     1.25400
C2573       C  0.96508513  0.80545473  0.31582022     0.87500
C2574       C  0.53953278  0.81640256  0.18812563     0.87400
C2575       C  0.54690588  0.82466293  0.30653718     0.87500
C2576       C  0.95973372  0.79733801  0.19996725     0.87600
C2577       C  0.62346930  0.81416165  0.45518329     0.86200
C2578       C  0.65238751  0.83148790  0.46311028    -0.54000
C2579       C  0.66610154  0.83105078  0.00164387     0.09200
C2580       C  0.64913012  0.80839574  0.03146930     0.20100
C2581       C  0.63122929  0.78214925  0.46185879    -0.54700
C2582       C  0.64396533  0.77974135  0.00217652     0.09300
C2583       C  0.60362998  0.82099503  0.49469538    -0.54300
C2584       C  0.61696941  0.82054085  0.03509879     0.09800
H2585       H  0.66049949  0.84701836  0.43944849     0.14400
H2586       H  0.66064253  0.80474555  0.06380468     0.00100
H2587       H  0.62376354  0.76498313  0.43873590     0.14700
H2588       H  0.58014803  0.83100544  0.99143456     0.14400
C2589       C  0.88433833  0.78695089  0.04473747     0.86200
C2590       C  0.86053973  0.81036989  0.03834644    -0.54000
C2591       C  0.84263685  0.80725147  0.50251403     0.09200
C2592       C  0.85279749  0.78228009  0.47159969     0.20100
C2593       C  0.86661319  0.75839328  0.03893040    -0.54700
C2594       C  0.85055259  0.75402492  0.50086459     0.09300
C2595       C  0.90376617  0.79066524  0.00469364    -0.54300
C2596       C  0.88721322  0.78965140  0.46627064     0.09800
H2597       H  0.85986616  0.83019977  0.05783468     0.14400
H2598       H  0.83943695  0.78066310  0.44008890     0.00100
H2599       H  0.86864930  0.74133611  0.06257749     0.14700
H2600       H  0.92642673  0.79467297  0.50896979     0.14400
C2601       C  0.94754003  0.82022089  0.38938060    -0.06000
C2602       C  0.94242630  0.80294676  0.35135268    -0.00100
C2603       C  0.91548254  0.78500540  0.34834614    -0.08700
C2604       C  0.89678981  0.78302840  0.38495393    -0.06000
C2605       C  0.90351837  0.79815302  0.42476722    -0.00100
C2606       C  0.92802939  0.81937176  0.42491314    -0.08600
C2607       C  0.93399722  0.84301012  0.46005822     0.61800
H2608       H  0.96694047  0.83521982  0.39111874     0.12500
H2609       H  0.87649181  0.76922040  0.38187924     0.12500
C2610       C  0.90423112  0.76840248  0.30721535     0.62000
F2611       F  0.93888903  0.86972076  0.44030537    -0.23100
F2612       F  0.96121080  0.83643633  0.98412713    -0.20500
F2613       F  0.91017685  0.84624370  0.48717457    -0.20100
F2614       F  0.92371163  0.77025760  0.27335955    -0.20200
F2615       F  0.87700593  0.77945108  0.29291317    -0.20500
F2616       F  0.89968366  0.73921440  0.31672316    -0.23200
C2617       C  0.94369496  0.77022013  0.13457527    -0.06000
C2618       C  0.93642247  0.79043698  0.16674354    -0.00100
C2619       C  0.90984173  0.80611430  0.16242661    -0.08700
C2620       C  0.89349439  0.80381990  0.12276067    -0.06000
C2621       C  0.90277906  0.78666535  0.08742307    -0.00100
C2622       C  0.92765421  0.76779673  0.09448945    -0.08600
C2623       C  0.94128593  0.74766790  0.06047548     0.61800
H2624       H  0.96351538  0.75735742  0.13994519     0.12500
H2625       H  0.87301705  0.81551752  0.12053971     0.12500
C2626       C  0.89741871  0.82533708  0.19804237     0.62000
F2627       F  0.95348393  0.72359663  0.08066091    -0.23500
F2628       F  0.96317920  0.76261959  0.54013659    -0.20500
F2629       F  0.92097510  0.73685905  0.02863488    -0.20100
F2630       F  0.89928694  0.85425095  0.18540019    -0.20200
F2631       F  0.91231060  0.82282414  0.23830960    -0.20500
F2632       F  0.86746500  0.81753175  0.20341528    -0.23200
C2633       C  0.59598519  0.81135779  0.33534078    -0.06000
C2634       C  0.57195799  0.83021682  0.33789401    -0.00100
C2635       C  0.57062651  0.84991776  0.37367437    -0.08700
C2636       C  0.59031940  0.84576139  0.40964677    -0.06000
C2637       C  0.60980213  0.82205125  0.41094927    -0.00100
C2638       C  0.61624663  0.80797673  0.37070310    -0.08600
C2639       C  0.64333043  0.78956917  0.36202999     0.61800
H2640       H  0.59828960  0.79827869  0.30577396     0.12500
H2641       H  0.58937295  0.86007610  0.43801968     0.12500
C2642       C  0.54770702  0.87379229  0.37541790     0.62000
F2643       F  0.65573808  0.79833467  0.32322699    -0.23100
F2644       F  0.63409498  0.76045619  0.35749782    -0.20500
F2645       F  0.66596439  0.79241348  0.39421553    -0.20100
F2646       F  0.51892511  0.86141723  0.37427702    -0.20200
F2647       F  0.55081990  0.89210924  0.34006823    -0.20500
F2648       F  0.55145244  0.89076672  0.41331377    -0.23200
C2649       C  0.58048757  0.79608332  0.08321853    -0.06000
C2650       C  0.59867505  0.82095331  0.07591010    -0.00100
C2651       C  0.59513270  0.84585989  0.10360578    -0.08700
C2652       C  0.57699896  0.84320026  0.14087973    -0.06000
C2653       C  0.55939582  0.81769928  0.14875974    -0.00100
C2654       C  0.55992193  0.79450295  0.11715381    -0.08600
C2655       C  0.53630270  0.76987151  0.11529363     0.61800
H2656       H  0.58123061  0.77814300  0.06022979     0.12500
H2657       H  0.57561127  0.86179955  0.16302837     0.12500
C2658       C  0.60822574  0.87606392  0.09434602     0.62000
F2659       F  0.53806923  0.75210603  0.07841051    -0.23100
F2660       F  0.50828652  0.78194417  0.11400572    -0.20500
F2661       F  0.53942273  0.75244182  0.15137366    -0.20100
F2662       F  0.62120672  0.87776127  0.05406265    -0.20200
F2663       F  0.62965104  0.88396376  0.12675203    -0.20500
F2664       F  0.58546958  0.89602544  0.09465197    -0.23200
C2665       C  0.88524436  0.69374985  0.10621378    -0.06000
C2666       C  0.89293338  0.67849782  0.06778322    -0.00100
C2667       C  0.91763562  0.65909768  0.07301414    -0.08700
C2668       C  0.93652436  0.66070046  0.11165531    -0.06000
C2669       C  0.93136906  0.67938161  0.14715997    -0.00100
C2670       C  0.90392512  0.69468002  0.14549467    -0.08600
C2671       C  0.89333862  0.71032638  0.18601970     0.61800
H2672       H  0.86438214  0.70510427  0.10570723     0.12500
H2673       H  0.95558266  0.64664978  0.11427082     0.12500
C2674       C  0.92457681  0.63490572  0.04063770     0.62000
F2675       F  0.86502881  0.72156713  0.17909376    -0.23100
F2676       F  0.91292413  0.73323463  0.19817022    -0.20500
F2677       F  0.89198106  0.69085788  0.22020854    -0.20100
F2678       F  0.94897754  0.64354927  0.01663624    -0.20200
F2679       F  0.90179942  0.62763077  0.51043664    -0.20500
F2680       F  0.93202304  0.60984183  0.06302257    -0.23200
C2681       C  0.90312576  0.67226954  0.32787069    -0.06000
C2682       C  0.93208219  0.68431644  0.33705370    -0.00100
C2683       C  0.93926423  0.69893740  0.37704473    -0.08700
C2684       C  0.91683292  0.70150377  0.40659360    -0.06000
C2685       C  0.88867058  0.68675365  0.40047008    -0.00100
C2686       C  0.88036907  0.67468320  0.35827338    -0.08600
C2687       C  0.84799257  0.66971019  0.34108966     0.61800
H2688       H  0.89791595  0.66253859  0.29576333     0.12500
H2689       H  0.92165327  0.71448972  0.43613864     0.12500
C2690       C  0.97087187  0.71040698  0.38976333     0.62000
F2691       F  0.84535649  0.67642722  0.29698228    -0.23100
F2692       F  0.82860572  0.68756573  0.36245489    -0.20500
F2693       F  0.83907893  0.64074331  0.34550953    -0.20100
F2694       F  0.97878420  0.73339362  0.36326455    -0.20200
F2695       F  0.99070698  0.68801162  0.38536821    -0.20500
F2696       F  0.97341508  0.72032193  0.43288945    -0.23200
C2697       C  0.55169421  0.72052001  0.38378171    -0.06000
C2698       C  0.55505273  0.69622192  0.35577752    -0.00100
C2699       C  0.57753714  0.67620301  0.36820854    -0.08700
C2700       C  0.59394166  0.68020414  0.40900580    -0.06000
C2701       C  0.59114230  0.70479991  0.43689973    -0.00100
C2702       C  0.56845246  0.72488847  0.42405084    -0.08600
C2703       C  0.55923629  0.75066898  0.45160170     0.61800
H2704       H  0.53482080  0.73617305  0.37480986     0.12500
H2705       H  0.60770325  0.66269458  0.42027428     0.12500
C2706       C  0.58514967  0.65112268  0.33798700     0.62000
F2707       F  0.56149898  0.77597300  0.42749049    -0.23100
F2708       F  0.57642531  0.75465373  0.48964494    -0.20500
F2709       F  0.52833162  0.74904649  0.96242258    -0.20100
F2710       F  0.58894369  0.66134240  0.29599363    -0.20200
F2711       F  0.56235176  0.62982963  0.33718994    -0.20500
F2712       F  0.61163894  0.63838176  0.35158803    -0.23200
C2713       C  0.58580967  0.71142561  0.17530015    -0.06000
C2714       C  0.56358171  0.68926431  0.16803197    -0.00100
C2715       C  0.56509571  0.66988719  0.13179136    -0.08700
C2716       C  0.58682357  0.67588789  0.10118839    -0.06000
C2717       C  0.60512085  0.70160626  0.10395923    -0.00100
C2718       C  0.60794779  0.71686402  0.14484430    -0.08600
C2719       C  0.63490450  0.73602343  0.16037762     0.61800
H2720       H  0.58601367  0.72443693  0.20532647     0.12500
H2721       H  0.58798439  0.66172698  0.07262454     0.12500
C2722       C  0.54251236  0.64462109  0.12311904     0.62000
F2723       F  0.64402568  0.72810870  0.20239557    -0.23100
F2724       F  0.62697190  0.76501750  0.16152021    -0.20500
F2725       F  0.65940090  0.73282942  0.13448398    -0.20100
F2726       F  0.51371183  0.65508118  0.12188348    -0.20200
F2727       F  0.54536587  0.62413889  0.15582085    -0.20500
F2728       F  0.54664520  0.63057693  0.08342116    -0.23200
C2729       C  0.81183403  0.90713142  0.14709930    -0.06000
C2730       C  0.82556805  0.93494887  0.14389900    -0.00100
C2731       C  0.84170642  0.94133083  0.10610473    -0.08700
C2732       C  0.84127391  0.92053125  0.07145714    -0.06000
C2733       C  0.82438707  0.89366137  0.07174880    -0.00100
C2734       C  0.81281620  0.88543483  0.11359802    -0.08600
C2735       C  0.80402443  0.85428721  0.12693194     0.61800
H2736       H  0.80071537  0.90216644  0.17711168     0.12500
H2737       H  0.85438853  0.92570576  0.04351399     0.12500
C2738       C  0.85774284  0.97080932  0.10104403     0.62000
F2739       F  0.80522413  0.85154780  0.17214951    -0.23100
F2740       F  0.82395519  0.83475580  0.11139554    -0.20500
F2741       F  0.77512525  0.84614680  0.11253868    -0.20100
F2742       F  0.88099544  0.97425894  0.13232797    -0.20200
F2743       F  0.83745943  0.99273106  0.10613374    -0.20500
F2744       F  0.86982589  0.97379715  0.06016035    -0.23200
C2745       C  0.84336302  0.92667423  0.36171106    -0.06000
C2746       C  0.81956122  0.92515860  0.33014688    -0.00100
C2747       C  0.79777243  0.90189197  0.33123878    -0.08700
C2748       C  0.79923587  0.88284644  0.36673501    -0.06000
C2749       C  0.81977363  0.88790540  0.40263888    -0.00100
C2750       C  0.84466221  0.90767099  0.39708612    -0.08600
C2751       C  0.87332560  0.90982819  0.42594159     0.61800
H2752       H  0.86106330  0.94340998  0.35942722     0.12500
H2753       H  0.78291525  0.86487190  0.36784729     0.12500
C2754       C  0.77235441  0.89754513  0.29668273     0.62000
F2755       F  0.89798340  0.90941801  0.39968155    -0.23100
F2756       F  0.87601157  0.88699031  0.45459342    -0.20500
F2757       F  0.87436753  0.93594549  0.44945747    -0.20100
F2758       F  0.78378263  0.89823356  0.25526768    -0.20200
F2759       F  0.75177514  0.91934200  0.30091464    -0.20500
F2760       F  0.75704214  0.87092722  0.30082829    -0.23200
C2761       C  0.78154685  0.54132469  0.37155755    -0.06000
C2762       C  0.80844101  0.54613192  0.34992780    -0.00100
C2763       C  0.82925195  0.56799979  0.36760292    -0.08700
C2764       C  0.82117891  0.58519020  0.40428602    -0.06000
C2765       C  0.79367524  0.58093789  0.42507548    -0.00100
C2766       C  0.77439019  0.55710146  0.40951769    -0.08600
C2767       C  0.74675086  0.54702032  0.43306551     0.61800
H2768       H  0.76626925  0.52396391  0.35916024     0.12500
H2769       H  0.83725976  0.60103222  0.41875135     0.12500
C2770       C  0.86005637  0.57297450  0.34878222     0.62000
F2771       F  0.73245416  0.52254985  0.41356924    -0.23100
F2772       F  0.72630074  0.56887540  0.43251171    -0.20500
F2773       F  0.75498140  0.53964820  0.47542537    -0.20100
F2774       F  0.85692945  0.57933734  0.30466817    -0.20200
F2775       F  0.87668477  0.54813126  0.35410874    -0.20500
F2776       F  0.87615428  0.59596352  0.36960177    -0.23200
C2777       C  0.83364998  0.55891030  0.12797197    -0.06000
C2778       C  0.81423164  0.55963493  0.16248609    -0.00100
C2779       C  0.79226315  0.58109399  0.16400859    -0.08700
C2780       C  0.78699893  0.59786720  0.12656674    -0.06000
C2781       C  0.80324130  0.59376357  0.08827687    -0.00100
C2782       C  0.82936642  0.57614468  0.09103335    -0.08600
C2783       C  0.85313270  0.57270066  0.05674827     0.61800
H2784       H  0.85197179  0.54382783  0.12921587     0.12500
H2785       H  0.77010957  0.61420695  0.12757476     0.12500
C2786       C  0.77553397  0.58697428  0.20549548     0.62000
F2787       F  0.85001052  0.54499370  0.03802128    -0.23100
F2788       F  0.88143398  0.57555728  0.07720986    -0.20500
F2789       F  0.85223239  0.59285675  0.02374232    -0.20100
F2790       F  0.79600328  0.59097585  0.24059757    -0.20200
F2791       F  0.75630785  0.56370192  0.21392440    -0.20500
F2792       F  0.75860913  0.61179902  0.20215000    -0.23200
C2793       C  0.71558958  0.95102452  0.38224432    -0.06000
C2794       C  0.68783264  0.94904479  0.35840328    -0.00100
C2795       C  0.66650522  0.92711990  0.37158474    -0.08700
C2796       C  0.67369471  0.90916207  0.40831114    -0.06000
C2797       C  0.70143391  0.91168820  0.43238626    -0.00100
C2798       C  0.72273139  0.93337275  0.41849434    -0.08600
C2799       C  0.75344531  0.94002257  0.44027354     0.61800
H2800       H  0.73237374  0.96728524  0.37303494     0.12500
H2801       H  0.65687915  0.89387711  0.41982865     0.12500
C2802       C  0.63604443  0.92266372  0.34787867     0.62000
F2803       F  0.77529334  0.93702905  0.40978664    -0.23100
F2804       F  0.76009034  0.92198989  0.47450952    -0.20500
F2805       F  0.75485608  0.96863151  0.45565963    -0.20100
F2806       F  0.63981415  0.91687873  0.30390887    -0.20200
F2807       F  0.61944163  0.94748875  0.35251656    -0.20500
F2808       F  0.61970371  0.89934720  0.36441633    -0.23200
C2809       C  0.70215571  0.89998987  0.13577347    -0.06000
C2810       C  0.71626313  0.91181960  0.09898183    -0.00100
C2811       C  0.72958219  0.94077780  0.10366245    -0.08700
C2812       C  0.72113932  0.95837147  0.13857390    -0.06000
C2813       C  0.70298028  0.94750287  0.17113212    -0.00100
C2814       C  0.69489533  0.91750489  0.17168000    -0.08600
C2815       C  0.67896908  0.90412428  0.21003033     0.61800
H2816       H  0.69640667  0.87693240  0.13650081     0.12500
H2817       H  0.72862066  0.98121322  0.14031989     0.12500
C2818       C  0.75226859  0.95493365  0.07383886     0.62000
F2819       F  0.67618437  0.87394085  0.20622831    -0.23100
F2820       F  0.65039221  0.91494097  0.21205982    -0.20500
F2821       F  0.69513457  0.91096085  0.24869822    -0.20100
F2822       F  0.73768527  0.97224350  0.04352597    -0.20200
F2823       F  0.76893450  0.93473821  0.05291756    -0.20500
F2824       F  0.77269922  0.97270433  0.09819966    -0.23200
C2825       C  0.64247648  0.59124106  0.40531124    -0.06000
C2826       C  0.66559030  0.61315421  0.40676585    -0.00100
C2827       C  0.67937585  0.62035681  0.36673201    -0.08700
C2828       C  0.67675279  0.59981761  0.33251691    -0.06000
C2829       C  0.65873585  0.57433996  0.33524302    -0.00100
C2830       C  0.63881363  0.57138098  0.36987928    -0.08600
C2831       C  0.61513806  0.54677508  0.37069106     0.61800
H2832       H  0.62814630  0.58880971  0.43284471     0.12500
H2833       H  0.69023393  0.60305526  0.30408748     0.12500
C2834       C  0.69755689  0.64823613  0.35733102     0.62000
F2835       F  0.59780856  0.54860700  0.40726780    -0.23100
F2836       F  0.62880225  0.52002701  0.37121962    -0.20500
F2837       F  0.59606171  0.54823714  0.33388678    -0.20100
F2838       F  0.72682252  0.64131300  0.34872849    -0.20200
F2839       F  0.69841126  0.66888250  0.39064023    -0.20500
F2840       F  0.68482896  0.66110201  0.32051331    -0.23200
C2841       C  0.68449513  0.55353592  0.10956166    -0.06000
C2842       C  0.67494595  0.56514672  0.14904506    -0.00100
C2843       C  0.66791733  0.59528379  0.15007943    -0.08700
C2844       C  0.66988173  0.61232547  0.11124234    -0.06000
C2845       C  0.67907981  0.60059339  0.07103782    -0.00100
C2846       C  0.68739663  0.57049516  0.07129233    -0.08600
C2847       C  0.70178871  0.55608993  0.03290360     0.61800
H2848       H  0.69047460  0.53073711  0.10912057     0.12500
H2849       H  0.66425771  0.63505418  0.11233480     0.12500
C2850       C  0.65899496  0.60944220  0.19251100     0.62000
F2851       F  0.71958412  0.53328658  0.04631208    -0.23100
F2852       F  0.72018405  0.57611629  0.01306209    -0.20500
F2853       F  0.67995642  0.54504575  0.00311748    -0.20100
F2854       F  0.68255747  0.60798069  0.22322814    -0.20200
F2855       F  0.63392123  0.59485214  0.20795184    -0.20500
F2856       F  0.65225603  0.63857673  0.18718831    -0.23200
O2857       O  0.70128276  0.54153870  0.71219213    -0.74700
O2858       O  0.70927886  0.98895651  0.80928299    -0.74700
O2859       O  0.71614040  0.98558240  0.72182843    -0.74800
O2860       O  0.69420092  0.54572145  0.79942560    -0.74800
O2861       O  0.64548641  0.53319265  0.79023945    -0.74700
O2862       O  0.66738354  0.97318286  0.71168445    -0.74700
O2863       O  0.66091769  0.97603057  0.79996832    -0.74700
O2864       O  0.65258178  0.52947179  0.70214309    -0.74800
Ni2865     Ni  0.70609455  0.51558386  0.76129168     1.25400
Ni2866     Ni  0.65566456  0.00297335  0.75123988     1.25400
C2867       C  0.67604384  0.54439088  0.69101696     0.87500
C2868       C  0.68644072  0.97329549  0.82072687     0.87400
C2869       C  0.69501641  0.96945224  0.70377392     0.87500
C2870       C  0.66662063  0.54986020  0.80721614     0.87600
C2871       C  0.67667782  0.62864311  0.94908373     0.86200
C2872       C  0.66601741  0.65891297  0.95864222    -0.54000
C2873       C  0.67661371  0.66742732  0.49917241     0.09200
C2874       C  0.69845973  0.64686904  0.52624239     0.20100
C2875       C  0.71097471  0.63196678  0.95285481    -0.54700
C2876       C  0.72341373  0.63891363  0.49341402     0.09300
C2877       C  0.66838243  0.60979320  0.98969190    -0.54300
C2878       C  0.68081470  0.61721609  0.53179050     0.09800
H2879       H  0.65192080  0.67054868  0.93579804     0.14400
H2880       H  0.70759348  0.65660309  0.55774495     0.00100
H2881       H  0.72531047  0.62469731  0.92735694     0.14700
H2882       H  0.65836005  0.58506252  0.49009963     0.14400
C2883       C  0.71217607  0.89247975  0.55557749     0.86200
C2884       C  0.69005274  0.86555054  0.55302659    -0.54000
C2885       C  0.69082144  0.85289137  0.01380770     0.09200
C2886       C  0.71404664  0.86522780  0.98102919     0.20100
C2887       C  0.74256295  0.87943696  0.54682258    -0.54700
C2888       C  0.74446037  0.86438428  0.00759142     0.09300
C2889       C  0.70332789  0.90988495  0.51438059    -0.54300
C2890       C  0.70761983  0.89848912  0.97572914     0.09800
H2891       H  0.67334914  0.86039031  0.57675998     0.14400
H2892       H  0.71403456  0.85309887  0.94925493     0.00100
H2893       H  0.76200529  0.88429140  0.56773155     0.14700
H2894       H  0.70157120  0.93556699  0.01741059     0.14400
O2895       O  0.84442763  0.96414105  0.78823385    -0.74700
O2896       O  0.84313869  0.52766682  0.71037266    -0.74700
O2897       O  0.83921788  0.52115526  0.79814478    -0.74800
O2898       O  0.84567607  0.97144768  0.70005664    -0.74800
O2899       O  0.79570410  0.96550566  0.69545457    -0.74700
O2900       O  0.78959921  0.51557042  0.78895294    -0.74700
O2901       O  0.79324834  0.52128375  0.70142104    -0.74700
O2902       O  0.79442015  0.95923956  0.78334981    -0.74800
Ni2903     Ni  0.84452054  0.99726662  0.75096867     1.25400
Ni2904     Ni  0.79100972  0.99148622  0.74484205     1.25400
C2905       C  0.81991820  0.95098141  0.79851847     0.87500
C2906       C  0.81776258  0.53536932  0.69396816     0.87400
C2907       C  0.81268445  0.52719177  0.81009270     0.87500
C2908       C  0.82168804  0.95976091  0.68138268     0.87600
C2909       C  0.79503281  0.60742560  0.54660349     0.86200
C2910       C  0.81493937  0.63389043  0.53673394    -0.54000
C2911       C  0.80750490  0.64760994  0.99841613     0.09200
C2912       C  0.78038466  0.63311193  0.97131951     0.20100
C2913       C  0.76290035  0.61937764  0.54389638    -0.54700
C2914       C  0.75419319  0.63416424  0.00418890     0.09300
C2915       C  0.79546983  0.58626892  0.50681543    -0.54300
C2916       C  0.78738374  0.59985896  0.96623682     0.09800
H2917       H  0.83359756  0.64148679  0.55852367     0.14400
H2918       H  0.77566471  0.64391828  0.93951854     0.00100
H2919       H  0.74623055  0.61588852  0.56834088     0.14700
H2920       H  0.79864013  0.56462311  0.00848588     0.14400
C2921       C  0.81371098  0.87382842  0.94488362     0.86200
C2922       C  0.82846625  0.84468162  0.94880374    -0.54000
C2923       C  0.82317292  0.83156777  0.48935375     0.09200
C2924       C  0.80191325  0.84855475  0.52002686     0.20100
C2925       C  0.78012203  0.86698315  0.95041254    -0.54700
C2926       C  0.77292012  0.85455630  0.49129159     0.09300
C2927       C  0.82285794  0.89157074  0.98746780    -0.54300
C2928       C  0.81708022  0.87944483  0.52800579     0.09800
H2929       H  0.84416234  0.83692588  0.92517312     0.14400
H2930       H  0.79658692  0.83564145  0.54879318     0.00100
H2931       H  0.76281640  0.87642530  0.92939120     0.14700
H2932       H  0.82783453  0.91510286  0.48407766     0.14400
O2933       O  0.96391910  0.66243347  0.78915443    -0.74700
O2934       O  0.52830716  0.66290350  0.71329359    -0.74700
O2935       O  0.52403355  0.66792455  0.80176568    -0.74800
O2936       O  0.96588416  0.65985862  0.70015210    -0.74800
O2937       O  0.96332913  0.70830067  0.69744320    -0.74700
O2938       O  0.52240910  0.71626841  0.79717884    -0.74700
O2939       O  0.52732091  0.71141974  0.70935178    -0.74700
O2940       O  0.96121741  0.71106187  0.78569096    -0.74800
Ni2941     Ni  0.99556403  0.66214007  0.74933961     1.25400
Ni2942     Ni  0.99272796  0.71403897  0.74590968     1.25400
C2943       C  0.95289858  0.68646651  0.80131735     0.87500
C2944       C  0.53866023  0.68709205  0.69885018     0.87400
C2945       C  0.53262324  0.69357741  0.81642691     0.87500
C2946       C  0.95436167  0.68282580  0.68309308     0.87600
C2947       C  0.61935978  0.70755036  0.56111644     0.86200
C2948       C  0.64652083  0.68922078  0.55424235    -0.54000
C2949       C  0.65893126  0.69599198  0.01481487     0.09200
C2950       C  0.64313396  0.72046683  0.98644776     0.20100
C2951       C  0.63072784  0.73926759  0.55611422    -0.54700
C2952       C  0.64305395  0.74844757  0.01752361     0.09300
C2953       C  0.59775496  0.70213143  0.51981776    -0.54300
C2954       C  0.60919899  0.71058601  0.98093601     0.09800
H2955       H  0.65299452  0.67231023  0.57682881     0.14400
H2956       H  0.65384308  0.72461243  0.95477781     0.00100
H2957       H  0.62649406  0.75640423  0.57945341     0.14700
H2958       H  0.57373396  0.69942353  0.02331757     0.14400
C2959       C  0.87040431  0.68682513  0.94149398     0.86200
C2960       C  0.84281992  0.66675037  0.94590338    -0.54000
C2961       C  0.82795453  0.67066581  0.48272785     0.09200
C2962       C  0.84319585  0.69483875  0.51399282     0.20100
C2963       C  0.85887480  0.71730039  0.94612707    -0.54700
C2964       C  0.84571908  0.72314528  0.48474547     0.09300
C2965       C  0.88990819  0.68123114  0.98411047    -0.54300
C2966       C  0.87587095  0.68402825  0.52211918     0.09800
H2967       H  0.83692978  0.64859049  0.92422971     0.14400
H2968       H  0.83060961  0.69824349  0.54418243     0.00100
H2969       H  0.86437263  0.73400369  0.92285524     0.14700
H2970       H  0.91272592  0.67597087  0.48144885     0.14400
O2971       O  0.97975471  0.78460513  0.80223824    -0.74700
O2972       O  0.53347159  0.79046479  0.70765711    -0.74700
O2973       O  0.53887302  0.79745927  0.79594354    -0.74800
O2974       O  0.97526704  0.77837993  0.71502443    -0.74800
O2975       O  0.96734584  0.82611249  0.70785263    -0.74700
O2976       O  0.53022521  0.84500943  0.78977571    -0.74700
O2977       O  0.52503262  0.83780708  0.70077635    -0.74700
O2978       O  0.97161127  0.83222015  0.79628749    -0.74800
Ni2979     Ni  0.00782955  0.78548856  0.75518044     1.25400
Ni2980     Ni  0.99924380  0.83652930  0.74836546     1.25400
C2981       C  0.96579317  0.80737038  0.81411354     0.87500
C2982       C  0.53784654  0.81461063  0.68737115     0.87400
C2983       C  0.54526696  0.82419899  0.80607108     0.87500
C2984       C  0.96056631  0.79935510  0.69861464     0.87600
C2985       C  0.62290560  0.81733333  0.95520414     0.86200
C2986       C  0.65204381  0.83456388  0.96228640    -0.54000
C2987       C  0.66617602  0.82772172  0.50252893     0.09200
C2988       C  0.64910647  0.80475387  0.53168157     0.20100
C2989       C  0.63034399  0.78534175  0.96267664    -0.54700
C2990       C  0.64442893  0.77634250  0.50171564     0.09300
C2991       C  0.60351004  0.82486535  0.99482826    -0.54300
C2992       C  0.61676704  0.81655080  0.53506336     0.09800
H2993       H  0.66008139  0.84982199  0.93820190     0.14400
H2994       H  0.66044497  0.80091630  0.56408135     0.00100
H2995       H  0.62214397  0.76796281  0.94050421     0.14700
H2996       H  0.58022450  0.82696729  0.49111689     0.14400
C2997       C  0.88317480  0.78617864  0.54607481     0.86200
C2998       C  0.85959250  0.80975935  0.54031780    -0.54000
C2999       C  0.84372986  0.80740824  0.00029734     0.09200
C3000       C  0.85427500  0.78237850  0.96999640     0.20100
C3001       C  0.86532335  0.75771197  0.54001439    -0.54700
C3002       C  0.85198179  0.75438534  0.99979105     0.09300
C3003       C  0.90243993  0.79006898  0.50586295    -0.54300
C3004       C  0.88868543  0.79004934  0.96498893     0.09800
H3005       H  0.85961811  0.82972472  0.55960712     0.14400
H3006       H  0.84110178  0.78045581  0.93834496     0.00100
H3007       H  0.86749103  0.74047162  0.56336400     0.14700
H3008       H  0.92775450  0.79523019  0.00801929     0.14400
C3009       C  0.94838771  0.82179136  0.88784331    -0.06000
C3010       C  0.94305598  0.80493536  0.84950034    -0.00100
C3011       C  0.91626041  0.78681776  0.84651690    -0.08700
C3012       C  0.89812765  0.78386629  0.88364488    -0.06000
C3013       C  0.90494673  0.79886575  0.92359015    -0.00100
C3014       C  0.92924205  0.82037844  0.92375036    -0.08600
C3015       C  0.93570939  0.84350217  0.95955901     0.61800
H3016       H  0.96773941  0.83679703  0.88964638     0.12500
H3017       H  0.87840020  0.76950849  0.88095165     0.12500
C3018       C  0.90463179  0.77101308  0.80489569     0.62000
F3019       F  0.94103393  0.87043731  0.94066210    -0.23100
F3020       F  0.95954496  0.83668206  0.48505935    -0.20500
F3021       F  0.91204744  0.84676394  0.98693787    -0.20100
F3022       F  0.92296337  0.77499766  0.77002626    -0.20200
F3023       F  0.87651870  0.78115364  0.79299588    -0.20500
F3024       F  0.90182041  0.74139929  0.81251445    -0.23200
C3025       C  0.94405520  0.77156853  0.63437014    -0.06000
C3026       C  0.93708616  0.79238731  0.66588586    -0.00100
C3027       C  0.91019641  0.80765600  0.66200079    -0.08700
C3028       C  0.89263403  0.80340247  0.62373955    -0.06000
C3029       C  0.90174281  0.78601050  0.58856092    -0.00100
C3030       C  0.92725324  0.76797387  0.59515534    -0.08600
C3031       C  0.94067000  0.74760293  0.56133095     0.61800
H3032       H  0.96416630  0.75908874  0.63946910     0.12500
H3033       H  0.87153454  0.81407132  0.62219010     0.12500
C3034       C  0.89888544  0.82892346  0.69596151     0.62000
F3035       F  0.95359300  0.72405102  0.58189705    -0.23500
F3036       F  0.96434111  0.76269641  0.04048826    -0.20500
F3037       F  0.91999529  0.73613700  0.53049896    -0.20100
F3038       F  0.90078986  0.85698966  0.67967048    -0.20200
F3039       F  0.91461540  0.82844150  0.73583506    -0.20500
F3040       F  0.86904125  0.82205058  0.70370415    -0.23200
C3041       C  0.59380636  0.81036338  0.83657806    -0.06000
C3042       C  0.57031834  0.82995051  0.83757654    -0.00100
C3043       C  0.56986175  0.85122055  0.87152149    -0.08700
C3044       C  0.58949489  0.84788699  0.90793985    -0.06000
C3045       C  0.60892040  0.82418230  0.91069317    -0.00100
C3046       C  0.61461907  0.80841871  0.87155455    -0.08600
C3047       C  0.64168779  0.78976614  0.86379368     0.61800
H3048       H  0.59559343  0.79596499  0.80828527     0.12500
H3049       H  0.58874641  0.86300355  0.93541481     0.12500
C3050       C  0.54825220  0.87628349  0.87058616     0.62000
F3051       F  0.65277214  0.79606072  0.82311024    -0.23100
F3052       F  0.63296309  0.76043949  0.86392349    -0.20500
F3053       F  0.66513309  0.79500584  0.89420448    -0.20100
F3054       F  0.51885942  0.86547251  0.87066918    -0.20200
F3055       F  0.55233418  0.89259328  0.83330211    -0.20500
F3056       F  0.55301809  0.89491348  0.90653876    -0.23200
C3057       C  0.57994936  0.79274562  0.58368876    -0.06000
C3058       C  0.59822778  0.81747118  0.57576894    -0.00100
C3059       C  0.59387816  0.84294958  0.60197045    -0.08700
C3060       C  0.57532571  0.84093900  0.63898230    -0.06000
C3061       C  0.55794947  0.81544585  0.64792935    -0.00100
C3062       C  0.55889033  0.79180251  0.61710159    -0.08600
C3063       C  0.53513674  0.76735638  0.61530295     0.61800
H3064       H  0.58083990  0.77444125  0.56136994     0.12500
H3065       H  0.57343314  0.86002955  0.66001118     0.12500
C3066       C  0.60622714  0.87316030  0.59101243     0.62000
F3067       F  0.53688466  0.74938762  0.57862866    -0.23100
F3068       F  0.50718990  0.77957055  0.61375440    -0.20500
F3069       F  0.53813975  0.75018521  0.65160129    -0.20100
F3070       F  0.62131313  0.87378062  0.55235470    -0.20200
F3071       F  0.62561651  0.88338102  0.62472789    -0.20500
F3072       F  0.58254374  0.89195791  0.58660317    -0.23200
C3073       C  0.88431430  0.69263240  0.60499946    -0.06000
C3074       C  0.89253732  0.67798101  0.56640517    -0.00100
C3075       C  0.91813456  0.65964204  0.57104004    -0.08700
C3076       C  0.93729171  0.66201924  0.60930914    -0.06000
C3077       C  0.93121214  0.68000889  0.64520427    -0.00100
C3078       C  0.90320168  0.69429994  0.64393336    -0.08600
C3079       C  0.89264440  0.71032061  0.68413782     0.61800
H3080       H  0.86302141  0.70323398  0.60472489     0.12500
H3081       H  0.95743990  0.64935902  0.61119968     0.12500
C3082       C  0.92580643  0.63576569  0.53854433     0.62000
F3083       F  0.86370108  0.72018351  0.67775527    -0.23100
F3084       F  0.91140007  0.73425545  0.69423408    -0.20500
F3085       F  0.89285304  0.69168968  0.71943379    -0.20100
F3086       F  0.95002567  0.64510480  0.51468218    -0.20200
F3087       F  0.90030534  0.62735005  0.01270198    -0.20500
F3088       F  0.93391100  0.61088461  0.56088973    -0.23200
C3089       C  0.90288410  0.67325715  0.82734093    -0.06000
C3090       C  0.93151795  0.68615935  0.83576435    -0.00100
C3091       C  0.93894638  0.70037231  0.87600869    -0.08700
C3092       C  0.91715282  0.70122615  0.90684531    -0.06000
C3093       C  0.88924533  0.68589414  0.90116471    -0.00100
C3094       C  0.88062015  0.67429812  0.85869088    -0.08600
C3095       C  0.84826197  0.66750280  0.84273835     0.61800
H3096       H  0.89761814  0.66354514  0.79523998     0.12500
H3097       H  0.92215373  0.71376105  0.93675095     0.12500
C3098       C  0.97027833  0.71299251  0.88779259     0.62000
F3099       F  0.84469389  0.67205688  0.79804899    -0.23100
F3100       F  0.82853225  0.68564809  0.86285934    -0.20500
F3101       F  0.84059177  0.63856351  0.85017134    -0.20100
F3102       F  0.97735847  0.73568914  0.86029562    -0.20200
F3103       F  0.99073640  0.69110378  0.88403023    -0.20500
F3104       F  0.97283640  0.72379053  0.93045268    -0.23200
C3105       C  0.55070348  0.72264955  0.88404204    -0.06000
C3106       C  0.55345213  0.69757745  0.85732960    -0.00100
C3107       C  0.57503934  0.67706012  0.87145950    -0.08700
C3108       C  0.59197094  0.68198430  0.91173366    -0.06000
C3109       C  0.58996392  0.70750027  0.93794883    -0.00100
C3110       C  0.56739293  0.72749478  0.92431362    -0.08600
C3111       C  0.55797952  0.75343294  0.95136510     0.61800
H3112       H  0.53419826  0.73845813  0.87422528     0.12500
H3113       H  0.60552284  0.66465982  0.92414820     0.12500
C3114       C  0.58089291  0.65021380  0.84377389     0.62000
F3115       F  0.56013295  0.77858527  0.92691538    -0.23100
F3116       F  0.57504998  0.75773089  0.98945944    -0.20500
F3117       F  0.52959424  0.74638230  0.46273206    -0.20100
F3118       F  0.58553865  0.65824240  0.80093704    -0.20200
F3119       F  0.55667439  0.63053261  0.84476680    -0.20500
F3120       F  0.60624870  0.63627998  0.85890829    -0.23200
C3121       C  0.58607948  0.70959164  0.67516156    -0.06000
C3122       C  0.56373002  0.68741879  0.66904901    -0.00100
C3123       C  0.56496858  0.66754122  0.63332687    -0.08700
C3124       C  0.58595371  0.67346659  0.60149011    -0.06000
C3125       C  0.60466684  0.69892980  0.60353215    -0.00100
C3126       C  0.60809210  0.71436426  0.64425821    -0.08600
C3127       C  0.63551776  0.73312261  0.65914007     0.61800
H3128       H  0.58661563  0.72301201  0.70480317     0.12500
H3129       H  0.58661510  0.65909997  0.57308457     0.12500
C3130       C  0.54322208  0.64138624  0.62705349     0.62000
F3131       F  0.64475808  0.72531954  0.70114837    -0.23100
F3132       F  0.62819823  0.76229037  0.65998424    -0.20500
F3133       F  0.65976446  0.72928412  0.63296800    -0.20100
F3134       F  0.51399273  0.65069309  0.62649334    -0.20200
F3135       F  0.54763382  0.62198846  0.66091823    -0.20500
F3136       F  0.54711878  0.62647597  0.58799589    -0.23200
C3137       C  0.81140190  0.91030099  0.64804206    -0.06000
C3138       C  0.82373172  0.93857747  0.64381344    -0.00100
C3139       C  0.83767503  0.94569008  0.60453400    -0.08700
C3140       C  0.83748819  0.92461643  0.57021551    -0.06000
C3141       C  0.82252520  0.89668776  0.57200844    -0.00100
C3142       C  0.81218098  0.88849790  0.61464084    -0.08600
C3143       C  0.80456608  0.85729620  0.62885052     0.61800
H3144       H  0.80150312  0.90511893  0.67879929     0.12500
H3145       H  0.84958756  0.93043397  0.54162143     0.12500
C3146       C  0.85126136  0.97609786  0.59791825     0.62000
F3147       F  0.80579978  0.85496343  0.67413568    -0.23100
F3148       F  0.82534506  0.83850070  0.61379422    -0.20500
F3149       F  0.77597726  0.84799985  0.61461041    -0.20100
F3150       F  0.87622421  0.98072369  0.62593543    -0.20200
F3151       F  0.83013663  0.99670535  0.60656129    -0.20500
F3152       F  0.86011225  0.98008413  0.55536434    -0.23200
C3153       C  0.84485593  0.92814364  0.86211218    -0.06000
C3154       C  0.82119629  0.92701824  0.83027880    -0.00100
C3155       C  0.79958086  0.90357323  0.83042055    -0.08700
C3156       C  0.80046681  0.88438358  0.86575631    -0.06000
C3157       C  0.82087025  0.88890267  0.90192480    -0.00100
C3158       C  0.84595973  0.90853898  0.89690517    -0.08600
C3159       C  0.87474629  0.90955132  0.92548084     0.61800
H3160       H  0.86261661  0.94486160  0.86031926     0.12500
H3161       H  0.78388632  0.86659229  0.86635018     0.12500
C3162       C  0.77489153  0.89913619  0.79487558     0.62000
F3163       F  0.89927577  0.90942377  0.89895418    -0.23100
F3164       F  0.87707109  0.88586934  0.95262305    -0.20500
F3165       F  0.87636511  0.93500910  0.95057645    -0.20100
F3166       F  0.78678156  0.90216294  0.75405532    -0.20200
F3167       F  0.75295213  0.91948409  0.80029533    -0.20500
F3168       F  0.76130440  0.87149677  0.79623866    -0.23200
C3169       C  0.77928791  0.54460279  0.86803513    -0.06000
C3170       C  0.80757022  0.54708321  0.84929171    -0.00100
C3171       C  0.82919365  0.56736966  0.86935047    -0.08700
C3172       C  0.82088661  0.58503933  0.90551871    -0.06000
C3173       C  0.79232532  0.58269979  0.92389944    -0.00100
C3174       C  0.77193199  0.56043255  0.90598787    -0.08600
C3175       C  0.74347825  0.55108770  0.92819973     0.61800
H3176       H  0.76315094  0.52856101  0.85395175     0.12500
H3177       H  0.83750065  0.59969072  0.92160963     0.12500
C3178       C  0.86112419  0.57013406  0.85370668     0.62000
F3179       F  0.72743364  0.52872853  0.90572212    -0.23100
F3180       F  0.72475676  0.57420693  0.93087131    -0.20500
F3181       F  0.75107507  0.54095913  0.96941855    -0.20100
F3182       F  0.86059750  0.57707215  0.80969886    -0.20200
F3183       F  0.87540183  0.54399254  0.85996708    -0.20500
F3184       F  0.87802032  0.59176215  0.87651148    -0.23200
C3185       C  0.83673398  0.55936226  0.62976806    -0.06000
C3186       C  0.81679619  0.55974424  0.66380536    -0.00100
C3187       C  0.79427138  0.58070256  0.66433822    -0.08700
C3188       C  0.78923438  0.59721984  0.62682992    -0.06000
C3189       C  0.80586568  0.59336110  0.58900037    -0.00100
C3190       C  0.83232340  0.57623328  0.59236514    -0.08600
C3191       C  0.85602602  0.57270640  0.55801071     0.61800
H3192       H  0.85520985  0.54445071  0.63133933     0.12500
H3193       H  0.77201300  0.61327175  0.62790365     0.12500
C3194       C  0.77493057  0.58670067  0.70307053     0.62000
F3195       F  0.85302777  0.54488054  0.53966012    -0.23100
F3196       F  0.88439215  0.57584769  0.57819769    -0.20500
F3197       F  0.85480084  0.59267780  0.52475323    -0.20100
F3198       F  0.78335184  0.57152365  0.74018507    -0.20200
F3199       F  0.74531615  0.57936286  0.69135546    -0.20500
F3200       F  0.77706089  0.61621978  0.71370203    -0.23200
C3201       C  0.71808030  0.95485043  0.88348375    -0.06000
C3202       C  0.69064231  0.95235821  0.85889783    -0.00100
C3203       C  0.66935038  0.93029890  0.87175020    -0.08700
C3204       C  0.67638732  0.91245943  0.90858522    -0.06000
C3205       C  0.70391556  0.91521071  0.93306707    -0.00100
C3206       C  0.72517962  0.93705838  0.91961502    -0.08600
C3207       C  0.75586143  0.94345390  0.94163762     0.61800
H3208       H  0.73471354  0.97135278  0.87461161     0.12500
H3209       H  0.65963646  0.89700038  0.91978612     0.12500
C3210       C  0.63909738  0.92549855  0.84750798     0.62000
F3211       F  0.77770887  0.94234286  0.91073662    -0.23100
F3212       F  0.76307415  0.92391369  0.97367548    -0.20500
F3213       F  0.75662981  0.97129173  0.95999356    -0.20100
F3214       F  0.64332341  0.91972337  0.80368516    -0.20200
F3215       F  0.62216560  0.95014550  0.85171057    -0.20500
F3216       F  0.62281599  0.90202195  0.86376290    -0.23200
C3217       C  0.69867147  0.90050856  0.63491980    -0.06000
C3218       C  0.71302171  0.91149836  0.59774010    -0.00100
C3219       C  0.72730490  0.94021916  0.60160409    -0.08700
C3220       C  0.72065902  0.95796250  0.63739440    -0.06000
C3221       C  0.70271718  0.94789894  0.67064092    -0.00100
C3222       C  0.69289118  0.91836260  0.67112877    -0.08600
C3223       C  0.67702973  0.90568962  0.71005970     0.61800
H3224       H  0.69195417  0.87774115  0.63622094     0.12500
H3225       H  0.72869014  0.98062512  0.63894121     0.12500
C3226       C  0.74867794  0.95410782  0.56933366     0.62000
F3227       F  0.67217577  0.87570003  0.70593814    -0.23100
F3228       F  0.64935140  0.91818770  0.71372187    -0.20500
F3229       F  0.69447427  0.91130015  0.74799891    -0.20100
F3230       F  0.73267630  0.96642914  0.53505644    -0.20200
F3231       F  0.76825969  0.93427895  0.55382615    -0.20500
F3232       F  0.76650931  0.97628605  0.58930677    -0.23200
C3233       C  0.64188017  0.59432941  0.90335426    -0.06000
C3234       C  0.66500410  0.61623415  0.90451058    -0.00100
C3235       C  0.67993052  0.62181234  0.86487867    -0.08700
C3236       C  0.67852489  0.59992083  0.83249421    -0.06000
C3237       C  0.66023066  0.57465434  0.83612177    -0.00100
C3238       C  0.63921943  0.57313527  0.86957988    -0.08600
C3239       C  0.61532853  0.54876028  0.87105054     0.61800
H3240       H  0.62657253  0.59314586  0.92990212     0.12500
H3241       H  0.69263542  0.60224460  0.80447581     0.12500
C3242       C  0.69774472  0.64961057  0.85432901     0.62000
F3243       F  0.59711868  0.55195281  0.90645007    -0.23100
F3244       F  0.62883142  0.52201480  0.87444353    -0.20500
F3245       F  0.59710597  0.54904900  0.83323592    -0.20100
F3246       F  0.72773265  0.64336917  0.85004271    -0.20200
F3247       F  0.69582081  0.67159320  0.88530369    -0.20500
F3248       F  0.68665456  0.66025384  0.81481316    -0.23200
C3249       C  0.68942015  0.55323494  0.61425089    -0.06000
C3250       C  0.67521576  0.56346716  0.65109471    -0.00100
C3251       C  0.66292067  0.59173880  0.64937543    -0.08700
C3252       C  0.66580071  0.60882456  0.61079857    -0.06000
C3253       C  0.68052560  0.59873053  0.57355264    -0.00100
C3254       C  0.69272078  0.57011781  0.57623769    -0.08600
C3255       C  0.71002497  0.55601305  0.54064206     0.61800
H3256       H  0.69870700  0.53158582  0.61556242     0.12500
H3257       H  0.65587705  0.62997503  0.60938407     0.12500
C3258       C  0.64677960  0.60364606  0.68821726     0.62000
F3259       F  0.73493315  0.54244522  0.55874387    -0.23100
F3260       F  0.72035840  0.57618643  0.51181485    -0.20500
F3261       F  0.69168858  0.53533208  0.51828093    -0.20100
F3262       F  0.66622656  0.60502899  0.72474070    -0.20200
F3263       F  0.62235566  0.58538944  0.69666322    -0.20500
F3264       F  0.63639898  0.63143736  0.68064215    -0.23200
loop_ 
_geom_bond_atom_site_label_1 
_geom_bond_atom_site_label_2 
_geom_bond_distance 
_geom_bond_site_symmetry_2 
_ccdc_geom_bond_type 
O1           Ni9   1.937       .  S
O1           C11   1.282       .  A
O2         Ni825   1.933       .  S
O2           C12   1.286       .  A
O3         Ni825   1.892       .  S
O3           C13   1.276       .  A
O4           Ni9   1.893       .  S
O4           C14   1.277       .  A
O5         Ni826   1.914       .  S
O5           C14   1.279       .  A
O6          Ni10   1.913       .  S
O6           C13   1.279       .  A
O7          Ni10   1.957       .  S
O7           C12   1.288       .  A
O8         Ni826   1.959       .  S
O8           C11   1.288       .  A
Ni9         O818   1.935   1_545  S
Ni9         O819   1.892   1_545  S
Ni9        Ni826   2.382       .  S
Ni10        O821   1.915       .  S
Ni10        O824   1.959       .  S
Ni10       Ni825   2.383       .  S
C11         C394   1.512       .  S
C12         C346   1.529       .  S
C13         C365   1.459       .  S
C14         C381   1.468       .  S
C15          C16   1.504       .  S
C15          C21   1.568       .  S
C15          C19   1.524       .  S
C15         C378   1.528       .  S
C16          H23   1.076       .  S
C16         C425   1.349       .  D
C17          C18   1.592   1_556  S
C17         C424   1.344       .  D
C17         C501   1.500   1_556  S
C18          C22   1.563       .  S
C18          C20   1.568   1_554  S
C18          H24   1.110       .  S
C19          H25   1.081       .  S
C19         C428   1.353       .  D
C20         C427   1.358       .  D
C20         C466   1.496   1_556  S
C21         H434   1.079       .  S
C21         C430   1.366       .  D
C22         C429   1.366   1_554  D
C22         C397   1.546       .  S
H26         C429   1.078       .  S
C27          C28   1.548       .  S
C27          C33   1.543       .  S
C27          C31   1.522       .  S
C27         C362   1.542       .  S
C28          H35   1.078       .  S
C28         C437   1.359       .  D
C29          C30   1.566       .  S
C29         C436   1.357       .  D
C29         C539   1.490       .  S
C30          C34   1.564       .  S
C30          C32   1.550       .  S
C30          H36   1.110       .  S
C31          H37   1.067       .  S
C31         C440   1.361       .  D
C32         C439   1.360       .  D
C32         C478   1.494       .  S
C33         H446   1.082       .  S
C33         C442   1.360   1_554  D
C34         C441   1.361       .  D
C34         C349   1.523       .  S
H38         C441   1.082       .  S
O39         Ni47   1.896       .  S
O39          C49   1.278       .  A
O40        Ni863   1.898   1_545  S
O40          C50   1.277       .  A
O41        Ni863   1.940   1_545  S
O41          C51   1.284       .  A
O42         Ni47   1.942       .  S
O42          C52   1.286       .  A
O43         Ni48   1.927       .  S
O43          C52   1.282       .  A
O44        Ni864   1.930   1_545  S
O44          C51   1.286       .  A
O45        Ni864   1.904   1_545  S
O45          C50   1.278       .  A
O46         Ni48   1.905       .  S
O46          C49   1.278       .  A
Ni47        O856   1.894       .  S
Ni47        O857   1.944       .  S
Ni47        Ni48   2.386       .  S
Ni48        O860   1.920       .  S
Ni48        O861   1.905       .  S
C49         C298   1.464       .  S
C50         C330   1.460       .  S
C51         C314   1.517       .  S
C52         C282   1.499       .  S
C53          C54   1.518       .  S
C53          C59   1.546       .  S
C53          C57   1.543       .  S
C53         C333   1.523       .  S
C54          H61   1.087       .  S
C54         C463   1.353   1_554  D
C55          C56   1.556       .  S
C55         C462   1.351       .  D
C55         C513   1.479       .  S
C56          C60   1.564       .  S
C56          C58   1.567       .  S
C56          H62   1.110       .  S
C57          H63   1.083       .  S
C57         C466   1.364       .  D
C58         C465   1.365       .  D
C58         C428   1.494       .  S
C59         H472   1.085       .  S
C59         C468   1.359   1_554  D
C60         C467   1.361       .  D
C60         C317   1.528       .  S
H64         C467   1.086       .  S
C65          C66   1.509       .  S
C65          C71   1.552       .  S
C65          C69   1.533       .  S
C65         C301   1.523       .  S
C66          H73   1.087       .  S
C66         C475   1.349       .  D
C67          C68   1.569   1_556  S
C67         C474   1.347       .  D
C67         C551   1.479   1_556  S
C68          C72   1.556       .  S
C68          C70   1.563   1_554  S
C68          H74   1.095       .  S
C69          H75   1.086       .  S
C69         C478   1.358       .  D
C70         C477   1.357       .  D
C70         C440   1.494   1_556  S
C71         H484   1.078       .  S
C71         C480   1.381       .  D
C72         C479   1.383   1_554  D
C72         C285   1.549       .  S
H76         C479   1.079       .  S
O77         Ni85   1.902       .  S
O77          C87   1.275       .  A
O78       Ni1717   1.892   1_455  S
O78          C88   1.274       .  A
O79       Ni1717   1.955   1_455  S
O79          C89   1.289       .  A
O80         Ni85   1.960       .  S
O80          C90   1.290       .  A
O81         Ni86   1.943       .  S
O81          C90   1.285       .  A
O82       Ni1718   1.943   1_455  S
O82          C89   1.286       .  A
O83       Ni1718   1.900   1_455  S
O83          C88   1.278       .  A
O84         Ni86   1.891       .  S
O84          C87   1.277       .  A
Ni85       O1710   1.900       .  S
Ni85       O1711   1.957       .  S
Ni85        Ni86   2.383       .  S
Ni86       O1714   1.944       .  S
Ni86       O1715   1.898       .  S
C87         C234   1.449       .  S
C88         C266   1.460       .  S
C89         C250   1.527       .  S
C90         C221   1.521       .  S
C91          C92   1.511       .  S
C91          C97   1.565       .  S
C91          C95   1.528       .  S
C91         C269   1.515       .  S
C92          H99   1.085       .  S
C92         C501   1.346       .  D
C93          C94   1.585       .  S
C93         C500   1.346       .  D
C93         C425   1.497       .  S
C94          C98   1.563       .  S
C94          C96   1.577       .  S
C94         H100   1.110       .  S
C95         H101   1.078       .  S
C95         C504   1.359       .  D
C96         C503   1.359       .  D
C96         C542   1.503       .  S
C97         H510   1.086       .  S
C97         C506   1.364   1_554  D
C98         C505   1.365       .  D
C98         C253   1.540       .  S
H102        C505   1.086       .  S
C103        C104   1.522       .  S
C103        C109   1.559       .  S
C103        C107   1.508       .  S
C103        C237   1.518       .  S
C104        H111   1.077       .  S
C104        C513   1.362       .  D
C105        C106   1.569   1_556  S
C105        C512   1.360       .  D
C105        C463   1.482       .  S
C106        C110   1.562       .  S
C106        C108   1.587   1_554  S
C106        H112   1.109       .  S
C107        H113   1.073       .  S
C107        C516   1.343       .  D
C108        C515   1.342       .  D
C108        C554   1.496   1_556  S
C109        H522   1.080       .  S
C109        C518   1.362       .  D
C110        C517   1.363   1_554  D
C110        C218   1.549       .  S
H114        C517   1.081       .  S
O115       Ni123   1.942       .  S
O115        C125   1.285       .  A
O116      Ni1755   1.942       .  S
O116        C126   1.286       .  A
O117      Ni1755   1.888       .  S
O117        C127   1.278       .  A
O118       Ni123   1.877       .  S
O118        C128   1.275       .  A
O119       Ni124   1.887       .  S
O119        C128   1.275       .  A
O120      Ni1756   1.895   1_455  S
O120        C127   1.275       .  A
O121      Ni1756   1.954   1_455  S
O121        C126   1.288       .  A
O122       Ni124   1.951       .  S
O122        C125   1.289       .  A
Ni123      O1748   1.944       .  S
Ni123      O1749   1.886       .  S
Ni123      Ni124   2.387       .  S
Ni124      O1752   1.893       .  S
Ni124      O1753   1.952       .  S
C125        C154   1.511       .  S
C126        C205   1.517       .  S
C127        C186   1.455       .  S
C128        C170   1.439       .  S
C129        C130   1.499       .  S
C129        C135   1.557       .  S
C129        C133   1.527       .  S
C129        C189   1.510       .  S
C130        H137   1.083       .  S
C130        C539   1.344       .  D
C131        C132   1.581   1_556  S
C131        C538   1.345       .  D
C131        C437   1.494   1_556  S
C132        C136   1.560       .  S
C132        C134   1.582   1_554  S
C132        H138   1.110       .  S
C133        H139   1.082       .  S
C133        C542   1.359       .  D
C134        C541   1.361       .  D
C134        C504   1.509   1_556  S
C135        H548   1.086       .  S
C135        C544   1.365       .  D
C136        C543   1.364   1_554  D
C136        C202   1.523       .  S
H140        C543   1.086       .  S
C141        C142   1.533       .  S
C141        C147   1.533       .  S
C141        C145   1.506       .  S
C141        C173   1.504       .  S
C142        H149   1.080       .  S
C142        C551   1.356       .  D
C143        C144   1.563       .  S
C143        C550   1.356       .  D
C143        C475   1.482       .  S
C144        C148   1.570       .  S
C144        C146   1.584       .  S
C144        H150   1.110       .  S
C145        H151   1.074       .  S
C145        C554   1.343       .  D
C146        C553   1.345       .  D
C146        C516   1.497       .  S
C147        H560   1.080       .  S
C147        C556   1.360   1_554  D
C148        C555   1.361       .  D
C148        C157   1.531       .  S
H152        C555   1.080       .  S
C153        C154   1.401       .  A
C153        C158   1.414       .  A
C153        H160   1.083       .  S
C154        C155   1.429       .  A
C155        C162   1.517       .  S
C155        C156   1.422       .  A
C156        C157   1.407       .  A
C156        H161   1.075       .  S
C157        C158   1.434       .  A
C158        C159   1.520       .  S
C159        F163   1.384       .  S
C159        F165   1.380       .  S
C159        F572   1.383       .  S
C162        F166   1.376       .  S
C162        F167   1.383       .  S
C162        F168   1.378       .  S
F164        C567   1.383       .  S
C169        C170   1.393       .  A
C169        C174   1.388       .  A
C169        H176   1.084       .  S
C170        C171   1.405       .  A
C171        C178   1.521       .  S
C171        C172   1.387       .  A
C172        C173   1.408       .  A
C172        H177   1.073       .  S
C173        C174   1.434       .  A
C174        C175   1.534       .  S
C175        F179   1.383       .  S
C175        F181   1.375       .  S
C175        F588   1.383       .  S
C178        F182   1.383       .  S
C178        F183   1.380       .  S
C178        F184   1.384       .  S
F180        C583   1.382       .  S
C185        C186   1.399       .  A
C185        C190   1.392       .  A
C185        H192   1.085       .  S
C186        C187   1.413       .  A
C187        C194   1.519       .  S
C187        C188   1.395       .  A
C188        C189   1.406       .  A
C188        H193   1.081       .  S
C189        C190   1.422       .  A
C190        C191   1.522       .  S
C191        F195   1.385       .  S
C191        F196   1.383       .  S
C191        F197   1.380       .  S
C194        F198   1.381       .  S
C194        F199   1.383       .  S
C194        F200   1.385       .  S
C201        C202   1.404       .  A
C201        C206   1.412       .  A
C201        H208   1.072       .  S
C202        C203   1.427       .  A
C203        C210   1.513       .  S
C203        C204   1.425       .  A
C204        C205   1.410       .  A
C204        H209   1.084       .  S
C205        C206   1.421       .  A
C206        C207   1.515       .  S
C207        F211   1.385       .  S
C207        F212   1.381       .  S
C207        F213   1.377       .  S
C210        F214   1.380       .  S
C210        F215   1.380       .  S
C210        F216   1.384       .  S
C217        C218   1.414       .  A
C217        C222   1.428       .  A
C217        H224   1.077       .  S
C218        C219   1.438       .  A
C219        C226   1.521       .  S
C219        C220   1.420       .  A
C220        C221   1.403       .  A
C220        H225   1.082       .  S
C221        C222   1.424       .  A
C222        C223   1.518       .  S
C223        F227   1.384       .  S
C223        F228   1.378       .  S
C223        F229   1.383       .  S
C226        F230   1.383       .  S
C226        F232   1.384       .  S
C226        F639   1.380       .  S
F231        C634   1.381       .  S
C233        C234   1.401       .  A
C233        C238   1.408       .  A
C233        H240   1.084       .  S
C234        C235   1.406       .  A
C235        C242   1.518       .  S
C235        C236   1.378       .  A
C236        C237   1.406       .  A
C236        H241   1.083       .  S
C237        C238   1.425       .  A
C238        C239   1.520       .  S
C239        F243   1.386       .  S
C239        F244   1.382       .  S
C239        F245   1.381       .  S
C242        F246   1.381       .  S
C242        F247   1.380       .  S
C242        F248   1.385       .  S
C249        C250   1.407       .  A
C249        C254   1.419       .  A
C249        H256   1.083       .  S
C250        C251   1.423       .  A
C251        C258   1.516       .  S
C251        C252   1.425       .  A
C252        C253   1.411       .  A
C252        H257   1.074       .  S
C253        C254   1.434       .  A
C254        C255   1.512       .  S
C255        F259   1.383       .  S
C255        F260   1.366       .  S
C255        F669   1.383       .  S
C258        F262   1.384       .  S
C258        F263   1.382       .  S
C258        F264   1.381       .  S
F261        C663   1.383       .  S
C265        C266   1.401       .  A
C265        C270   1.398       .  A
C265        H272   1.085       .  S
C266        C267   1.415       .  A
C267        C274   1.520       .  S
C267        C268   1.393       .  A
C268        C269   1.405       .  A
C268        H273   1.083       .  S
C269        C270   1.420       .  A
C270        C271   1.520       .  S
C271        F275   1.385       .  S
C271        F276   1.383       .  S
C271        F277   1.382       .  S
C274        F278   1.380       .  S
C274        F279   1.383       .  S
C274        F280   1.385       .  S
C281        C282   1.399       .  A
C281        C286   1.415       .  A
C281        H288   1.078       .  S
C282        C283   1.411       .  A
C283        C290   1.517       .  S
C283        C284   1.414       .  A
C284        C285   1.422       .  A
C284        H289   1.077       .  S
C285        C286   1.443       .  A
C286        C287   1.528       .  S
C287        F291   1.386       .  S
C287        F292   1.372       .  S
C287        F293   1.379       .  S
C290        F294   1.382       .  S
C290        F295   1.382       .  S
C290        F296   1.384       .  S
C297        C298   1.398       .  A
C297        C302   1.393       .  A
C297        H304   1.085       .  S
C298        C299   1.413       .  A
C299        C306   1.515       .  S
C299        C300   1.400       .  A
C300        C301   1.408       .  A
C300        H305   1.082       .  S
C301        C302   1.424       .  A
C302        C303   1.517       .  S
C303        F307   1.384       .  S
C303        F308   1.375       .  S
C303        F309   1.383       .  S
C306        F310   1.379       .  S
C306        F311   1.382       .  S
C306        F312   1.385       .  S
C313        C314   1.402       .  A
C313        C318   1.411       .  A
C313        H320   1.082       .  S
C314        C315   1.427       .  A
C315        C322   1.518       .  S
C315        C316   1.424       .  A
C316        C317   1.409       .  A
C316        H321   1.079       .  S
C317        C318   1.430       .  A
C318        C319   1.510       .  S
C319        F323   1.385       .  S
C319        F324   1.369       .  S
C319        F325   1.378       .  S
C322        F326   1.383       .  S
C322        F327   1.383       .  S
C322        F328   1.385       .  S
C329        C330   1.391       .  A
C329        C334   1.395       .  A
C329        H336   1.084       .  S
C330        C331   1.408       .  A
C331        C338   1.517       .  S
C331        C332   1.401       .  A
C332        C333   1.412       .  A
C332        H337   1.077       .  S
C333        C334   1.433       .  A
C334        C335   1.526       .  S
C335        F339   1.384       .  S
C335        F340   1.383       .  S
C335        F341   1.374       .  S
C338        F342   1.383       .  S
C338        F343   1.374       .  S
C338        F344   1.385       .  S
C345        C346   1.408       .  A
C345        C350   1.411       .  A
C345        H352   1.084       .  S
C346        C347   1.431       .  A
C347        C354   1.517       .  S
C347        C348   1.428       .  A
C348        C349   1.409       .  A
C348        H353   1.080       .  S
C349        C350   1.428       .  A
C350        C351   1.515       .  S
C351        F355   1.381       .  S
C351        F356   1.369       .  S
C351        F357   1.383       .  S
C354        F358   1.382       .  S
C354        F359   1.383       .  S
C354        F360   1.384       .  S
C361        C362   1.414       .  A
C361        C366   1.405       .  A
C361        H368   1.077       .  S
C362        C363   1.436       .  A
C363        C370   1.522       .  S
C363        C364   1.395       .  A
C364        C365   1.390       .  A
C364        H369   1.086       .  S
C365        C366   1.406       .  A
C366        C367   1.517       .  S
C367        F371   1.384       .  S
C367        F372   1.382       .  S
C367        F373   1.384       .  S
C370        F374   1.380       .  S
C370        F375   1.369       .  S
C370        F376   1.386       .  S
C377        C378   1.409       .  A
C377        C382   1.402       .  A
C377        H384   1.079       .  S
C378        C379   1.425       .  A
C379        C386   1.523       .  S
C379        C380   1.395       .  A
C380        C381   1.400       .  A
C380        H385   1.084       .  S
C381        C382   1.413       .  A
C382        C383   1.518       .  S
C383        F387   1.385       .  S
C383        F388   1.384       .  S
C383        F389   1.382       .  S
C386        F390   1.384       .  S
C386        F391   1.378       .  S
C386        F392   1.384       .  S
C393        C394   1.394       .  A
C393        C398   1.416       .  A
C393        H400   1.084       .  S
C394        C395   1.421       .  A
C395        C402   1.512       .  S
C395        C396   1.431       .  A
C396        C397   1.413       .  A
C396        H401   1.080       .  S
C397        C398   1.438       .  A
C398        C399   1.511       .  S
C399        F403   1.385       .  S
C399        F404   1.370       .  S
C399        F405   1.380       .  S
C402        F406   1.382       .  S
C402        F407   1.383       .  S
C402        F408   1.384       .  S
O409       Ni417   1.941       .  S
O409        C419   1.284       .  A
O410      Ni1233   1.935       .  S
O410        C420   1.287       .  A
O411      Ni1233   1.892       .  S
O411        C421   1.276       .  A
O412       Ni417   1.888       .  S
O412        C422   1.277       .  A
O413      Ni1234   1.912       .  S
O413        C422   1.278       .  A
O414       Ni418   1.914       .  S
O414        C421   1.280       .  A
O415       Ni418   1.951       .  S
O415        C420   1.286       .  A
O416      Ni1234   1.964       .  S
O416        C419   1.289       .  A
Ni417      O1226   1.940   1_545  S
Ni417      O1227   1.891   1_545  S
Ni417     Ni1234   2.383       .  S
Ni418      O1229   1.913       .  S
Ni418      O1232   1.952       .  S
Ni418     Ni1233   2.383       .  S
C419        C802   1.515       .  S
C420        C754   1.527       .  S
C421        C773   1.460       .  S
C422        C789   1.463       .  S
C423        C424   1.501       .  S
C423        C429   1.565       .  S
C423        C427   1.531       .  S
C423        C786   1.528       .  S
C424        H431   1.071       .  S
C425        C426   1.591       .  S
C426        C430   1.562       .  S
C426        C428   1.569       .  S
C426        H432   1.110       .  S
C427        H433   1.082       .  S
C430        C805   1.545       .  S
C435        C436   1.546       .  S
C435        C441   1.543       .  S
C435        C439   1.521       .  S
C435        C770   1.540       .  S
C436        H443   1.078       .  S
C437        C438   1.566   1_554  S
C438        C442   1.563       .  S
C438        C440   1.549   1_556  S
C438        H444   1.110       .  S
C439        H445   1.067       .  S
C442        C757   1.523       .  S
O447       Ni455   1.903       .  S
O447        C457   1.279       .  A
O448      Ni1271   1.899   1_545  S
O448        C458   1.278       .  A
O449      Ni1271   1.939   1_545  S
O449        C459   1.284       .  A
O450       Ni455   1.946       .  S
O450        C460   1.287       .  A
O451       Ni456   1.928       .  S
O451        C460   1.282       .  A
O452      Ni1272   1.925   1_545  S
O452        C459   1.285       .  A
O453      Ni1272   1.901   1_545  S
O453        C458   1.277       .  A
O454       Ni456   1.899       .  S
O454        C457   1.276       .  A
Ni455      O1264   1.900       .  S
Ni455      O1265   1.949       .  S
Ni455      Ni456   2.384       .  S
Ni456      O1268   1.924       .  S
Ni456      O1269   1.898       .  S
C457        C706   1.468       .  S
C458        C738   1.458       .  S
C459        C722   1.513       .  S
C460        C690   1.502       .  S
C461        C462   1.518       .  S
C461        C467   1.551       .  S
C461        C465   1.544       .  S
C461        C741   1.523       .  S
C462        H469   1.087       .  S
C463        C464   1.560       .  S
C464        C468   1.564       .  S
C464        C466   1.566   1_556  S
C464        H470   1.110       .  S
C465        H471   1.083       .  S
C468        C725   1.522       .  S
C473        C474   1.506       .  S
C473        C479   1.552       .  S
C473        C477   1.535       .  S
C473        C709   1.523       .  S
C474        H481   1.087       .  S
C475        C476   1.570       .  S
C476        C480   1.557       .  S
C476        C478   1.565       .  S
C476        H482   1.095       .  S
C477        H483   1.086       .  S
C480        C693   1.551       .  S
O485       Ni493   1.898       .  S
O485        C495   1.275       .  A
O486      Ni2125   1.894   1_455  S
O486        C496   1.274       .  A
O487      Ni2125   1.951   1_455  S
O487        C497   1.288       .  A
O488       Ni493   1.955       .  S
O488        C498   1.289       .  A
O489       Ni494   1.944       .  S
O489        C498   1.285       .  A
O490      Ni2126   1.944   1_455  S
O490        C497   1.287       .  A
O491      Ni2126   1.893   1_455  S
O491        C496   1.278       .  A
O492       Ni494   1.893       .  S
O492        C495   1.276       .  A
Ni493      O2118   1.897       .  S
Ni493      O2119   1.953       .  S
Ni493      Ni494   2.383       .  S
Ni494      O2122   1.944       .  S
Ni494      O2123   1.898       .  S
C495        C642   1.446       .  S
C496        C674   1.461       .  S
C497        C658   1.524       .  S
C498        C629   1.517       .  S
C499        C500   1.513       .  S
C499        C505   1.565       .  S
C499        C503   1.527       .  S
C499        C677   1.517       .  S
C500        H507   1.084       .  S
C501        C502   1.593   1_554  S
C502        C506   1.566       .  S
C502        C504   1.581   1_556  S
C502        H508   1.110       .  S
C503        H509   1.077       .  S
C506        C661   1.542       .  S
C511        C512   1.523       .  S
C511        C517   1.561       .  S
C511        C515   1.508       .  S
C511        C645   1.518       .  S
C512        H519   1.073       .  S
C513        C514   1.569       .  S
C514        C518   1.562       .  S
C514        C516   1.585       .  S
C514        H520   1.109       .  S
C515        H521   1.078       .  S
C518        C626   1.546       .  S
O523       Ni531   1.942       .  S
O523        C533   1.285       .  A
O524      Ni2163   1.944       .  S
O524        C534   1.286       .  A
O525      Ni2163   1.889       .  S
O525        C535   1.277       .  A
O526       Ni531   1.880       .  S
O526        C536   1.275       .  A
O527       Ni532   1.890       .  S
O527        C536   1.276       .  A
O528      Ni2164   1.900   1_455  S
O528        C535   1.276       .  A
O529      Ni2164   1.953   1_455  S
O529        C534   1.288       .  A
O530       Ni532   1.956       .  S
O530        C533   1.289       .  A
Ni531      O2156   1.946       .  S
Ni531      O2157   1.890       .  S
Ni531      Ni532   2.386       .  S
Ni532      O2160   1.896       .  S
Ni532      O2161   1.958       .  S
C533        C562   1.513       .  S
C534        C613   1.518       .  S
C535        C594   1.459       .  S
C536        C578   1.444       .  S
C537        C538   1.500       .  S
C537        C543   1.558       .  S
C537        C541   1.531       .  S
C537        C597   1.516       .  S
C538        H545   1.083       .  S
C539        C540   1.580       .  S
C540        C544   1.560       .  S
C540        C542   1.578       .  S
C540        H546   1.110       .  S
C541        H547   1.083       .  S
C544        C610   1.523       .  S
C549        C550   1.533       .  S
C549        C555   1.534       .  S
C549        C553   1.509       .  S
C549        C581   1.510       .  S
C550        H557   1.080       .  S
C551        C552   1.562   1_554  S
C552        C556   1.572       .  S
C552        C554   1.585   1_556  S
C552        H558   1.110       .  S
C553        H559   1.074       .  S
C556        C565   1.534       .  S
C561        C562   1.401       .  A
C561        C566   1.416       .  A
C561        H568   1.083       .  S
C562        C563   1.430       .  A
C563        C570   1.516       .  S
C563        C564   1.422       .  A
C564        C565   1.407       .  A
C564        H569   1.078       .  S
C565        C566   1.436       .  A
C566        C567   1.522       .  S
C567        F571   1.385       .  S
C567        F573   1.380       .  S
C570        F574   1.377       .  S
C570        F575   1.383       .  S
C570        F576   1.381       .  S
C577        C578   1.393       .  A
C577        C582   1.390       .  A
C577        H584   1.083       .  S
C578        C579   1.405       .  A
C579        C586   1.521       .  S
C579        C580   1.388       .  A
C580        C581   1.410       .  A
C580        H585   1.072       .  S
C581        C582   1.434       .  A
C582        C583   1.534       .  S
C583        F587   1.383       .  S
C583        F589   1.376       .  S
C586        F590   1.383       .  S
C586        F591   1.380       .  S
C586        F592   1.384       .  S
C593        C594   1.400       .  A
C593        C598   1.394       .  A
C593        H600   1.085       .  S
C594        C595   1.412       .  A
C595        C602   1.519       .  S
C595        C596   1.397       .  A
C596        C597   1.408       .  A
C596        H601   1.081       .  S
C597        C598   1.422       .  A
C598        C599   1.521       .  S
C599        F603   1.384       .  S
C599        F604   1.383       .  S
C599        F605   1.380       .  S
C602        F606   1.382       .  S
C602        F607   1.383       .  S
C602        F608   1.384       .  S
C609        C610   1.404       .  A
C609        C614   1.412       .  A
C609        H616   1.070       .  S
C610        C611   1.425       .  A
C611        C618   1.513       .  S
C611        C612   1.425       .  A
C612        C613   1.411       .  A
C612        H617   1.084       .  S
C613        C614   1.421       .  A
C614        C615   1.516       .  S
C615        F619   1.385       .  S
C615        F620   1.380       .  S
C615        F621   1.376       .  S
C618        F622   1.380       .  S
C618        F623   1.379       .  S
C618        F624   1.384       .  S
C625        C626   1.413       .  A
C625        C630   1.426       .  A
C625        H632   1.077       .  S
C626        C627   1.438       .  A
C627        C634   1.521       .  S
C627        C628   1.418       .  A
C628        C629   1.402       .  A
C628        H633   1.084       .  S
C629        C630   1.424       .  A
C630        C631   1.518       .  S
C631        F635   1.384       .  S
C631        F636   1.377       .  S
C631        F637   1.382       .  S
C634        F638   1.383       .  S
C634        F640   1.384       .  S
C641        C642   1.399       .  A
C641        C646   1.407       .  A
C641        H648   1.083       .  S
C642        C643   1.404       .  A
C643        C650   1.518       .  S
C643        C644   1.378       .  A
C644        C645   1.409       .  A
C644        H649   1.083       .  S
C645        C646   1.426       .  A
C646        C647   1.521       .  S
C647        F651   1.385       .  S
C647        F652   1.383       .  S
C647        F653   1.379       .  S
C650        F654   1.379       .  S
C650        F655   1.380       .  S
C650        F656   1.385       .  S
C657        C658   1.406       .  A
C657        C662   1.418       .  A
C657        H664   1.084       .  S
C658        C659   1.422       .  A
C659        C666   1.518       .  S
C659        C660   1.425       .  A
C660        C661   1.414       .  A
C660        H665   1.071       .  S
C661        C662   1.434       .  A
C662        C663   1.512       .  S
C663        F667   1.382       .  S
C663        F668   1.367       .  S
C666        F670   1.384       .  S
C666        F671   1.382       .  S
C666        F672   1.383       .  S
C673        C674   1.402       .  A
C673        C678   1.395       .  A
C673        H680   1.085       .  S
C674        C675   1.415       .  A
C675        C682   1.520       .  S
C675        C676   1.395       .  A
C676        C677   1.408       .  A
C676        H681   1.083       .  S
C677        C678   1.419       .  A
C678        C679   1.519       .  S
C679        F683   1.385       .  S
C679        F684   1.383       .  S
C679        F685   1.382       .  S
C682        F686   1.382       .  S
C682        F687   1.383       .  S
C682        F688   1.385       .  S
C689        C690   1.400       .  A
C689        C694   1.417       .  A
C689        H696   1.078       .  S
C690        C691   1.411       .  A
C691        C698   1.518       .  S
C691        C692   1.414       .  A
C692        C693   1.423       .  A
C692        H697   1.077       .  S
C693        C694   1.442       .  A
C694        C695   1.528       .  S
C695        F699   1.386       .  S
C695        F700   1.372       .  S
C695        F701   1.379       .  S
C698        F702   1.382       .  S
C698        F703   1.382       .  S
C698        F704   1.385       .  S
C705        C706   1.399       .  A
C705        C710   1.396       .  A
C705        H712   1.085       .  S
C706        C707   1.416       .  A
C707        C714   1.518       .  S
C707        C708   1.398       .  A
C708        C709   1.408       .  A
C708        H713   1.081       .  S
C709        C710   1.424       .  A
C710        C711   1.519       .  S
C711        F715   1.384       .  S
C711        F716   1.376       .  S
C711        F717   1.383       .  S
C714        F718   1.379       .  S
C714        F719   1.382       .  S
C714        F720   1.385       .  S
C721        C722   1.402       .  A
C721        C726   1.409       .  A
C721        H728   1.082       .  S
C722        C723   1.427       .  A
C723        C730   1.519       .  S
C723        C724   1.423       .  A
C724        C725   1.409       .  A
C724        H729   1.079       .  S
C725        C726   1.428       .  A
C726        C727   1.511       .  S
C727        F731   1.385       .  S
C727        F732   1.370       .  S
C727        F733   1.379       .  S
C730        F734   1.383       .  S
C730        F735   1.383       .  S
C730        F736   1.385       .  S
C737        C738   1.390       .  A
C737        C742   1.393       .  A
C737        H744   1.085       .  S
C738        C739   1.409       .  A
C739        C746   1.521       .  S
C739        C740   1.402       .  A
C740        C741   1.413       .  A
C740        H745   1.077       .  S
C741        C742   1.434       .  A
C742        C743   1.527       .  S
C743        F747   1.383       .  S
C743        F748   1.383       .  S
C743        F749   1.374       .  S
C746        F750   1.384       .  S
C746        F751   1.378       .  S
C746        F752   1.385       .  S
C753        C754   1.406       .  A
C753        C758   1.410       .  A
C753        H760   1.084       .  S
C754        C755   1.431       .  A
C755        C762   1.517       .  S
C755        C756   1.427       .  A
C756        C757   1.409       .  A
C756        H761   1.079       .  S
C757        C758   1.429       .  A
C758        C759   1.514       .  S
C759        F763   1.382       .  S
C759        F764   1.367       .  S
C759        F765   1.382       .  S
C762        F766   1.382       .  S
C762        F767   1.383       .  S
C762        F768   1.384       .  S
C769        C770   1.414       .  A
C769        C774   1.403       .  A
C769        H776   1.077       .  S
C770        C771   1.437       .  A
C771        C778   1.525       .  S
C771        C772   1.398       .  A
C772        C773   1.393       .  A
C772        H777   1.085       .  S
C773        C774   1.406       .  A
C774        C775   1.518       .  S
C775        F779   1.384       .  S
C775        F780   1.382       .  S
C775        F781   1.383       .  S
C778        F782   1.380       .  S
C778        F783   1.371       .  S
C778        F784   1.386       .  S
C785        C786   1.412       .  A
C785        C790   1.403       .  A
C785        H792   1.079       .  S
C786        C787   1.424       .  A
C787        C794   1.522       .  S
C787        C788   1.393       .  A
C788        C789   1.398       .  A
C788        H793   1.085       .  S
C789        C790   1.411       .  A
C790        C791   1.518       .  S
C791        F795   1.385       .  S
C791        F796   1.383       .  S
C791        F797   1.383       .  S
C794        F798   1.383       .  S
C794        F799   1.376       .  S
C794        F800   1.384       .  S
C801        C802   1.394       .  A
C801        C806   1.415       .  A
C801        H808   1.084       .  S
C802        C803   1.423       .  A
C803        C810   1.513       .  S
C803        C804   1.433       .  A
C804        C805   1.415       .  A
C804        H809   1.079       .  S
C805        C806   1.435       .  A
C806        C807   1.508       .  S
C807        F811   1.385       .  S
C807        F812   1.367       .  S
C807        F813   1.381       .  S
C810        F814   1.382       .  S
C810        F815   1.383       .  S
C810        F816   1.385       .  S
O817       Ni825   1.935       .  S
O817        C827   1.283       .  A
O818        C828   1.287       .  A
O819        C829   1.276       .  A
O820       Ni825   1.890       .  S
O820        C830   1.278       .  A
O821        C830   1.279       .  A
O822       Ni826   1.914   1_565  S
O822        C829   1.280       .  A
O823       Ni826   1.955   1_565  S
O823        C828   1.287       .  A
O824        C827   1.289       .  A
C827       C1210   1.510       .  S
C828       C1162   1.528       .  S
C829       C1181   1.460       .  S
C830       C1197   1.467       .  S
C831        C832   1.505       .  S
C831        C837   1.565       .  S
C831        C835   1.525       .  S
C831       C1194   1.527       .  S
C832        H839   1.075       .  S
C832       C1241   1.348       .  D
C833        C834   1.594   1_556  S
C833       C1240   1.347       .  D
C833       C1317   1.504   1_556  S
C834        C838   1.558       .  S
C834        C836   1.574   1_554  S
C834        H840   1.110       .  S
C835        H841   1.080       .  S
C835       C1244   1.353       .  D
C836       C1243   1.355       .  D
C836       C1282   1.499   1_556  S
C837       H1250   1.079       .  S
C837       C1246   1.365       .  D
C838       C1245   1.366   1_554  D
C838       C1213   1.542       .  S
H842       C1245   1.078       .  S
C843        C844   1.546       .  S
C843        C849   1.545       .  S
C843        C847   1.520       .  S
C843       C1178   1.540       .  S
C844        H851   1.078       .  S
C844       C1253   1.355       .  D
C845        C846   1.561       .  S
C845       C1252   1.359       .  D
C845       C1355   1.493       .  S
C846        C850   1.566       .  S
C846        C848   1.548       .  S
C846        H852   1.110       .  S
C847        H853   1.066       .  S
C847       C1256   1.360       .  D
C848       C1255   1.361       .  D
C848       C1294   1.492       .  S
C849       H1262   1.082       .  S
C849       C1258   1.363   1_554  D
C850       C1257   1.360       .  D
C850       C1165   1.525       .  S
H854       C1257   1.083       .  S
O855       Ni863   1.898       .  S
O855        C865   1.279       .  A
O856        C866   1.277       .  A
O857        C867   1.285       .  A
O858       Ni863   1.939       .  S
O858        C868   1.285       .  A
O859       Ni864   1.934       .  S
O859        C868   1.284       .  A
O860        C867   1.285       .  A
O861        C866   1.279       .  A
O862       Ni864   1.905       .  S
O862        C865   1.277       .  A
Ni863      Ni864   2.383       .  S
C865       C1114   1.472       .  S
C866       C1146   1.457       .  S
C867       C1130   1.514       .  S
C868       C1098   1.501       .  S
C869        C870   1.519       .  S
C869        C875   1.545       .  S
C869        C873   1.545       .  S
C869       C1149   1.521       .  S
C870        H877   1.087       .  S
C870       C1279   1.352       .  D
C871        C872   1.555       .  S
C871       C1278   1.351       .  D
C871       C1329   1.478       .  S
C872        C876   1.564       .  S
C872        C874   1.567       .  S
C872        H878   1.110       .  S
C873        H879   1.082       .  S
C873       C1282   1.364       .  D
C874       C1281   1.365       .  D
C874       C1244   1.496       .  S
C875       H1288   1.086       .  S
C875       C1284   1.360   1_554  D
C876       C1283   1.359       .  D
C876       C1133   1.524       .  S
H880       C1283   1.086       .  S
C881        C882   1.506       .  S
C881        C887   1.562       .  S
C881        C885   1.529       .  S
C881       C1117   1.528       .  S
C882        H889   1.087       .  S
C882       C1291   1.348       .  D
C883        C884   1.568   1_556  S
C883       C1290   1.349       .  D
C883       C1367   1.481   1_556  S
C884        C888   1.553       .  S
C884        C886   1.563   1_554  S
C884        H890   1.093       .  S
C885        H891   1.085       .  S
C885       C1294   1.353       .  D
C886       C1293   1.354       .  D
C886       C1256   1.493   1_556  S
C887       H1300   1.079       .  S
C887       C1296   1.390       .  D
C888       C1295   1.389   1_554  D
C888       C1101   1.552       .  S
H892       C1295   1.079       .  S
O893       Ni901   1.895       .  S
O893        C903   1.274       .  A
O894      Ni2533   1.900   1_455  S
O894        C904   1.276       .  A
O895      Ni2533   1.965   1_455  S
O895        C905   1.291       .  A
O896       Ni901   1.960       .  S
O896        C906   1.290       .  A
O897       Ni902   1.943       .  S
O897        C906   1.285       .  A
O898      Ni2534   1.945   1_455  S
O898        C905   1.286       .  A
O899      Ni2534   1.900   1_455  S
O899        C904   1.278       .  A
O900       Ni902   1.891       .  S
O900        C903   1.277       .  A
Ni901      O2526   1.895       .  S
Ni901      O2527   1.957       .  S
Ni901      Ni902   2.384       .  S
Ni902      O2530   1.941       .  S
Ni902      O2531   1.898       .  S
C903       C1050   1.444       .  S
C904       C1082   1.463       .  S
C905       C1066   1.532       .  S
C906       C1037   1.520       .  S
C907        C908   1.514       .  S
C907        C913   1.563       .  S
C907        C911   1.533       .  S
C907       C1085   1.524       .  S
C908        H915   1.081       .  S
C908       C1317   1.349       .  D
C909        C910   1.588       .  S
C909       C1316   1.348       .  D
C909       C1241   1.503       .  S
C910        C914   1.565       .  S
C910        C912   1.581       .  S
C910        H916   1.110       .  S
C911        H917   1.079       .  S
C911       C1320   1.362       .  D
C912       C1319   1.361       .  D
C912       C1358   1.510       .  S
C913       H1326   1.086       .  S
C913       C1322   1.360   1_554  D
C914       C1321   1.363       .  D
C914       C1069   1.543       .  S
H918       C1321   1.086       .  S
C919        C920   1.522       .  S
C919        C925   1.562       .  S
C919        C923   1.510       .  S
C919       C1053   1.520       .  S
C920        H927   1.074       .  S
C920       C1329   1.361       .  D
C921        C922   1.569   1_556  S
C921       C1328   1.360       .  D
C921       C1279   1.481   1_556  S
C922        C926   1.562       .  S
C922        C924   1.585   1_554  S
C922        H928   1.109       .  S
C923        H929   1.074       .  S
C923       C1332   1.343       .  D
C924       C1331   1.342       .  D
C924       C1370   1.496   1_556  S
C925       H1338   1.079       .  S
C925       C1334   1.362       .  D
C926       C1333   1.365   1_554  D
C926       C1034   1.550       .  S
H930       C1333   1.080       .  S
O931       Ni939   1.937       .  S
O931        C941   1.284       .  A
O932      Ni2571   1.946       .  S
O932        C942   1.286       .  A
O933      Ni2571   1.887       .  S
O933        C943   1.278       .  A
O934       Ni939   1.880       .  S
O934        C944   1.275       .  A
O935       Ni940   1.887       .  S
O935        C944   1.275       .  A
O936      Ni2572   1.898   1_455  S
O936        C943   1.275       .  A
O937      Ni2572   1.957   1_455  S
O937        C942   1.289       .  A
O938       Ni940   1.952       .  S
O938        C941   1.289       .  A
Ni939      O2564   1.937       .  S
Ni939      O2565   1.883       .  S
Ni939      Ni940   2.387       .  S
Ni940      O2568   1.897       .  S
Ni940      O2569   1.955       .  S
C941        C970   1.508       .  S
C942       C1021   1.523       .  S
C943       C1002   1.456       .  S
C944        C986   1.445       .  S
C945        C946   1.498       .  S
C945        C951   1.556       .  S
C945        C949   1.528       .  S
C945       C1005   1.512       .  S
C946        H953   1.083       .  S
C946       C1355   1.345       .  D
C947        C948   1.586       .  S
C947       C1354   1.342   1_554  D
C947       C1253   1.492       .  S
C948        C952   1.562       .  S
C948        C950   1.583       .  S
C948        H954   1.110       .  S
C949        H955   1.081       .  S
C949       C1358   1.359       .  D
C950       C1357   1.359   1_554  D
C950       C1320   1.510       .  S
C951       H1364   1.086       .  S
C951       C1360   1.364       .  D
C952       C1359   1.366   1_554  D
C952       C1018   1.525       .  S
H956       C1359   1.086       .  S
C957        C958   1.537       .  S
C957        C963   1.535       .  S
C957        C961   1.507       .  S
C957        C989   1.510       .  S
C958        H965   1.079       .  S
C958       C1367   1.358       .  D
C959        C960   1.559       .  S
C959       C1366   1.356       .  D
C959       C1291   1.482       .  S
C960        C964   1.571       .  S
C960        C962   1.580       .  S
C960        H966   1.110       .  S
C961        H967   1.074       .  S
C961       C1370   1.344       .  D
C962       C1369   1.345       .  D
C962       C1332   1.495       .  S
C963       H1376   1.081       .  S
C963       C1372   1.360   1_554  D
C964       C1371   1.360       .  D
C964        C973   1.529       .  S
H968       C1371   1.080       .  S
C969        C970   1.400       .  A
C969        C974   1.414       .  A
C969        H976   1.083       .  S
C970        C971   1.428       .  A
C971        C978   1.518       .  S
C971        C972   1.420       .  A
C972        C973   1.406       .  A
C972        H977   1.075       .  S
C973        C974   1.436       .  A
C974        C975   1.523       .  S
C975        F979   1.384       .  S
C975       F1388   1.383       .  S
C975        F981   1.380       .  S
C978        F982   1.377       .  S
C978        F983   1.383       .  S
C978        F984   1.378       .  S
F980       C1383   1.383       .  S
C985        C986   1.392       .  A
C985        C990   1.389       .  A
C985        H992   1.082       .  S
C986        C987   1.405       .  A
C987        C994   1.522       .  S
C987        C988   1.391       .  A
C988        C989   1.409       .  A
C988        H993   1.071       .  S
C989        C990   1.435       .  A
C990        C991   1.534       .  S
C991        F995   1.382       .  S
C991       F1404   1.383       .  S
C991        F997   1.375       .  S
C994        F998   1.382       .  S
C994        F999   1.381       .  S
C994       F1000   1.384       .  S
F996       C1399   1.383       .  S
C1001      C1002   1.399       .  A
C1001      C1006   1.391       .  A
C1001      H1008   1.086       .  S
C1002      C1003   1.413       .  A
C1003      C1010   1.519       .  S
C1003      C1004   1.396       .  A
C1004      C1005   1.408       .  A
C1004      H1009   1.082       .  S
C1005      C1006   1.422       .  A
C1006      C1007   1.521       .  S
C1007      F1011   1.385       .  S
C1007      F1012   1.384       .  S
C1007      F1013   1.381       .  S
C1010      F1014   1.382       .  S
C1010      F1015   1.383       .  S
C1010      F1016   1.385       .  S
C1017      C1018   1.404       .  A
C1017      C1022   1.414       .  A
C1017      H1024   1.075       .  S
C1018      C1019   1.427       .  A
C1019      C1026   1.513       .  S
C1019      C1020   1.426       .  A
C1020      C1021   1.411       .  A
C1020      H1025   1.084       .  S
C1021      C1022   1.424       .  A
C1022      C1023   1.513       .  S
C1023      F1027   1.385       .  S
C1023      F1028   1.380       .  S
C1023      F1029   1.374       .  S
C1026      F1030   1.380       .  S
C1026      F1031   1.379       .  S
C1026      F1032   1.384       .  S
C1033      C1034   1.414       .  A
C1033      C1038   1.427       .  A
C1033      H1040   1.077       .  S
C1034      C1035   1.439       .  A
C1035      C1042   1.521       .  S
C1035      C1036   1.420       .  A
C1036      C1037   1.402       .  A
C1036      H1041   1.081       .  S
C1037      C1038   1.425       .  A
C1038      C1039   1.520       .  S
C1039      F1043   1.384       .  S
C1039      F1044   1.378       .  S
C1039      F1045   1.382       .  S
C1042      F1046   1.383       .  S
C1042      F1455   1.380       .  S
C1042      F1048   1.385       .  S
F1047      C1450   1.381       .  S
C1049      C1050   1.399       .  A
C1049      C1054   1.407       .  A
C1049      H1056   1.084       .  S
C1050      C1051   1.403       .  A
C1051      C1058   1.518       .  S
C1051      C1052   1.377       .  A
C1052      C1053   1.409       .  A
C1052      H1057   1.083       .  S
C1053      C1054   1.427       .  A
C1054      C1055   1.519       .  S
C1055      F1059   1.386       .  S
C1055      F1060   1.382       .  S
C1055      F1061   1.378       .  S
C1058      F1062   1.380       .  S
C1058      F1063   1.381       .  S
C1058      F1064   1.385       .  S
C1065      C1066   1.409       .  A
C1065      C1070   1.421       .  A
C1065      H1072   1.082       .  S
C1066      C1067   1.423       .  A
C1067      C1074   1.516       .  S
C1067      C1068   1.428       .  A
C1068      C1069   1.414       .  A
C1068      H1073   1.073       .  S
C1069      C1070   1.433       .  A
C1070      C1071   1.514       .  S
C1071      F1075   1.382       .  S
C1071      F1076   1.369       .  S
C1071      F1485   1.383       .  S
C1074      F1078   1.384       .  S
C1074      F1079   1.382       .  S
C1074      F1080   1.381       .  S
F1077      C1479   1.382       .  S
C1081      C1082   1.400       .  A
C1081      C1086   1.401       .  A
C1081      H1088   1.085       .  S
C1082      C1083   1.412       .  A
C1083      C1090   1.518       .  S
C1083      C1084   1.394       .  A
C1084      C1085   1.408       .  A
C1084      H1089   1.082       .  S
C1085      C1086   1.423       .  A
C1086      C1087   1.518       .  S
C1087      F1091   1.385       .  S
C1087      F1092   1.383       .  S
C1087      F1093   1.381       .  S
C1090      F1094   1.379       .  S
C1090      F1095   1.382       .  S
C1090      F1096   1.385       .  S
C1097      C1098   1.398       .  A
C1097      C1102   1.418       .  A
C1097      H1104   1.080       .  S
C1098      C1099   1.412       .  A
C1099      C1106   1.516       .  S
C1099      C1100   1.413       .  A
C1100      C1101   1.420       .  A
C1100      H1105   1.076       .  S
C1101      C1102   1.447       .  A
C1102      C1103   1.529       .  S
C1103      F1107   1.386       .  S
C1103      F1108   1.373       .  S
C1103      F1109   1.379       .  S
C1106      F1110   1.382       .  S
C1106      F1111   1.380       .  S
C1106      F1112   1.384       .  S
C1113      C1114   1.402       .  A
C1113      C1118   1.395       .  A
C1113      H1120   1.085       .  S
C1114      C1115   1.417       .  A
C1115      C1122   1.519       .  S
C1115      C1116   1.401       .  A
C1116      C1117   1.411       .  A
C1116      H1121   1.081       .  S
C1117      C1118   1.419       .  A
C1118      C1119   1.516       .  S
C1119      F1123   1.384       .  S
C1119      F1124   1.374       .  S
C1119      F1125   1.383       .  S
C1122      F1126   1.381       .  S
C1122      F1127   1.382       .  S
C1122      F1128   1.385       .  S
C1129      C1130   1.402       .  A
C1129      C1134   1.407       .  A
C1129      H1136   1.082       .  S
C1130      C1131   1.426       .  A
C1131      C1138   1.518       .  S
C1131      C1132   1.425       .  A
C1132      C1133   1.411       .  A
C1132      H1137   1.081       .  S
C1133      C1134   1.427       .  A
C1134      C1135   1.510       .  S
C1135      F1139   1.385       .  S
C1135      F1140   1.370       .  S
C1135      F1141   1.379       .  S
C1138      F1142   1.383       .  S
C1138      F1143   1.383       .  S
C1138      F1144   1.385       .  S
C1145      C1146   1.392       .  A
C1145      C1150   1.395       .  A
C1145      H1152   1.085       .  S
C1146      C1147   1.407       .  A
C1147      C1154   1.516       .  S
C1147      C1148   1.398       .  A
C1148      C1149   1.411       .  A
C1148      H1153   1.079       .  S
C1149      C1150   1.435       .  A
C1150      C1151   1.526       .  S
C1151      F1155   1.384       .  S
C1151      F1156   1.383       .  S
C1151      F1157   1.374       .  S
C1154      F1158   1.382       .  S
C1154      F1159   1.379       .  S
C1154      F1160   1.384       .  S
C1161      C1162   1.406       .  A
C1161      C1166   1.411       .  A
C1161      H1168   1.084       .  S
C1162      C1163   1.431       .  A
C1163      C1170   1.517       .  S
C1163      C1164   1.428       .  A
C1164      C1165   1.408       .  A
C1164      H1169   1.079       .  S
C1165      C1166   1.430       .  A
C1166      C1167   1.513       .  S
C1167      F1171   1.382       .  S
C1167      F1172   1.367       .  S
C1167      F1173   1.382       .  S
C1170      F1174   1.381       .  S
C1170      F1175   1.382       .  S
C1170      F1176   1.385       .  S
C1177      C1178   1.414       .  A
C1177      C1182   1.403       .  A
C1177      H1184   1.077       .  S
C1178      C1179   1.435       .  A
C1179      C1186   1.523       .  S
C1179      C1180   1.397       .  A
C1180      C1181   1.392       .  A
C1180      H1185   1.086       .  S
C1181      C1182   1.406       .  A
C1182      C1183   1.517       .  S
C1183      F1187   1.385       .  S
C1183      F1188   1.382       .  S
C1183      F1189   1.382       .  S
C1186      F1190   1.380       .  S
C1186      F1191   1.370       .  S
C1186      F1192   1.386       .  S
C1193      C1194   1.411       .  A
C1193      C1198   1.403       .  A
C1193      H1200   1.079       .  S
C1194      C1195   1.425       .  A
C1195      C1202   1.522       .  S
C1195      C1196   1.393       .  A
C1196      C1197   1.399       .  A
C1196      H1201   1.084       .  S
C1197      C1198   1.412       .  A
C1198      C1199   1.518       .  S
C1199      F1203   1.385       .  S
C1199      F1204   1.383       .  S
C1199      F1205   1.383       .  S
C1202      F1206   1.384       .  S
C1202      F1207   1.378       .  S
C1202      F1208   1.384       .  S
C1209      C1210   1.396       .  A
C1209      C1214   1.415       .  A
C1209      H1216   1.084       .  S
C1210      C1211   1.421       .  A
C1211      C1218   1.513       .  S
C1211      C1212   1.428       .  A
C1212      C1213   1.412       .  A
C1212      H1217   1.077       .  S
C1213      C1214   1.436       .  A
C1214      C1215   1.511       .  S
C1215      F1219   1.385       .  S
C1215      F1220   1.372       .  S
C1215      F1221   1.381       .  S
C1218      F1222   1.382       .  S
C1218      F1223   1.383       .  S
C1218      F1224   1.385       .  S
O1225     Ni1233   1.934       .  S
O1225      C1235   1.282       .  A
O1226      C1236   1.288       .  A
O1227      C1237   1.276       .  A
O1228     Ni1233   1.890       .  S
O1228      C1238   1.277       .  A
O1229      C1238   1.279       .  A
O1230     Ni1234   1.913   1_565  S
O1230      C1237   1.279       .  A
O1231     Ni1234   1.961   1_565  S
O1231      C1236   1.289       .  A
O1232      C1235   1.286       .  A
C1235      C1618   1.504       .  S
C1236      C1570   1.535       .  S
C1237      C1589   1.458       .  S
C1238      C1605   1.466       .  S
C1239      C1240   1.503       .  S
C1239      C1245   1.567       .  S
C1239      C1243   1.527       .  S
C1239      C1602   1.528       .  S
C1240      H1247   1.074       .  S
C1241      C1242   1.592       .  S
C1242      C1246   1.559       .  S
C1242      C1244   1.570       .  S
C1242      H1248   1.110       .  S
C1243      H1249   1.082       .  S
C1246      C1621   1.538       .  S
C1251      C1252   1.550       .  S
C1251      C1257   1.543       .  S
C1251      C1255   1.522       .  S
C1251      C1586   1.539       .  S
C1252      H1259   1.080       .  S
C1253      C1254   1.568   1_554  S
C1254      C1258   1.569       .  S
C1254      C1256   1.550   1_556  S
C1254      H1260   1.110       .  S
C1255      H1261   1.066       .  S
C1258      C1573   1.531       .  S
O1263     Ni1271   1.905       .  S
O1263      C1273   1.280       .  A
O1264      C1274   1.277       .  A
O1265      C1275   1.286       .  A
O1266     Ni1271   1.944       .  S
O1266      C1276   1.286       .  A
O1267     Ni1272   1.933       .  S
O1267      C1276   1.284       .  A
O1268      C1275   1.285       .  A
O1269      C1274   1.277       .  A
O1270     Ni1272   1.902       .  S
O1270      C1273   1.277       .  A
Ni1271    Ni1272   2.384       .  S
C1273      C1522   1.473       .  S
C1274      C1554   1.458       .  S
C1275      C1538   1.517       .  S
C1276      C1506   1.504       .  S
C1277      C1278   1.517       .  S
C1277      C1283   1.547       .  S
C1277      C1281   1.546       .  S
C1277      C1557   1.521       .  S
C1278      H1285   1.087       .  S
C1279      C1280   1.558   1_554  S
C1280      C1284   1.566       .  S
C1280      C1282   1.569   1_556  S
C1280      H1286   1.110       .  S
C1281      H1287   1.083       .  S
C1284      C1541   1.525       .  S
C1289      C1290   1.507       .  S
C1289      C1295   1.558       .  S
C1289      C1293   1.533       .  S
C1289      C1525   1.529       .  S
C1290      H1297   1.087       .  S
C1291      C1292   1.572       .  S
C1292      C1296   1.554       .  S
C1292      C1294   1.562       .  S
C1292      H1298   1.093       .  S
C1293      H1299   1.086       .  S
C1296      C1509   1.557       .  S
O1301     Ni1309   1.897       .  S
O1301      C1311   1.275       .  A
O1302     Ni2941   1.897   1_455  S
O1302      C1312   1.274       .  A
O1303     Ni2941   1.956   1_455  S
O1303      C1313   1.290       .  A
O1304     Ni1309   1.961       .  S
O1304      C1314   1.290       .  A
O1305     Ni1310   1.945       .  S
O1305      C1314   1.285       .  A
O1306     Ni2942   1.942   1_455  S
O1306      C1313   1.286       .  A
O1307     Ni2942   1.901   1_455  S
O1307      C1312   1.279       .  A
O1308     Ni1310   1.893       .  S
O1308      C1311   1.277       .  A
Ni1309     O2934   1.900       .  S
Ni1309     O2935   1.959       .  S
Ni1309    Ni1310   2.383       .  S
Ni1310     O2938   1.943       .  S
Ni1310     O2939   1.899       .  S
C1311      C1458   1.447       .  S
C1312      C1490   1.466       .  S
C1313      C1474   1.527       .  S
C1314      C1445   1.521       .  S
C1315      C1316   1.514       .  S
C1315      C1321   1.565       .  S
C1315      C1319   1.531       .  S
C1315      C1493   1.523       .  S
C1316      H1323   1.081       .  S
C1317      C1318   1.588   1_554  S
C1318      C1322   1.566       .  S
C1318      C1320   1.580   1_556  S
C1318      H1324   1.110       .  S
C1319      H1325   1.078       .  S
C1322      C1477   1.539       .  S
C1327      C1328   1.522       .  S
C1327      C1333   1.563       .  S
C1327      C1331   1.508       .  S
C1327      C1461   1.518       .  S
C1328      H1335   1.074       .  S
C1329      C1330   1.567       .  S
C1330      C1334   1.561       .  S
C1330      C1332   1.583       .  S
C1330      H1336   1.109       .  S
C1331      H1337   1.078       .  S
C1334      C1442   1.549       .  S
O1339     Ni1347   1.940       .  S
O1339      C1349   1.284       .  A
O1340     Ni2979   1.943       .  S
O1340      C1350   1.286       .  A
O1341     Ni2979   1.886       .  S
O1341      C1351   1.278       .  A
O1342     Ni1347   1.876       .  S
O1342      C1352   1.274       .  A
O1343     Ni1348   1.891       .  S
O1343      C1352   1.277       .  A
O1344     Ni2980   1.895   1_455  S
O1344      C1351   1.275       .  A
O1345     Ni2980   1.953   1_455  S
O1345      C1350   1.288       .  A
O1346     Ni1348   1.959       .  S
O1346      C1349   1.290       .  A
Ni1347     O2972   1.945       .  S
Ni1347     O2973   1.883       .  S
Ni1347    Ni1348   2.385       .  S
Ni1348     O2976   1.899       .  S
Ni1348     O2977   1.961       .  S
C1349      C1378   1.514       .  S
C1350      C1429   1.519       .  S
C1351      C1410   1.454       .  S
C1352      C1394   1.442       .  S
C1353      C1354   1.495       .  S
C1353      C1359   1.558       .  S
C1353      C1357   1.527       .  S
C1353      C1413   1.510       .  S
C1354      H1361   1.083       .  S
C1355      C1356   1.581       .  S
C1356      C1360   1.557       .  S
C1356      C1358   1.583       .  S
C1356      H1362   1.110       .  S
C1357      H1363   1.083       .  S
C1360      C1426   1.517       .  S
C1365      C1366   1.537       .  S
C1365      C1371   1.531       .  S
C1365      C1369   1.509       .  S
C1365      C1397   1.510       .  S
C1366      H1373   1.079       .  S
C1367      C1368   1.558   1_554  S
C1368      C1372   1.571       .  S
C1368      C1370   1.583   1_556  S
C1368      H1374   1.110       .  S
C1369      H1375   1.073       .  S
C1372      C1381   1.534       .  S
C1377      C1378   1.402       .  A
C1377      C1382   1.417       .  A
C1377      H1384   1.084       .  S
C1378      C1379   1.430       .  A
C1379      C1386   1.517       .  S
C1379      C1380   1.422       .  A
C1380      C1381   1.406       .  A
C1380      H1385   1.077       .  S
C1381      C1382   1.436       .  A
C1382      C1383   1.522       .  S
C1383      F1387   1.384       .  S
C1383      F1389   1.381       .  S
C1386      F1390   1.377       .  S
C1386      F1391   1.383       .  S
C1386      F1392   1.382       .  S
C1393      C1394   1.394       .  A
C1393      C1398   1.391       .  A
C1393      H1400   1.082       .  S
C1394      C1395   1.403       .  A
C1395      C1402   1.521       .  S
C1395      C1396   1.386       .  A
C1396      C1397   1.409       .  A
C1396      H1401   1.069       .  S
C1397      C1398   1.435       .  A
C1398      C1399   1.534       .  S
C1399      F1403   1.383       .  S
C1399      F1405   1.376       .  S
C1402      F1406   1.383       .  S
C1402      F1407   1.380       .  S
C1402      F1408   1.384       .  S
C1409      C1410   1.398       .  A
C1409      C1414   1.391       .  A
C1409      H1416   1.086       .  S
C1410      C1411   1.412       .  A
C1411      C1418   1.518       .  S
C1411      C1412   1.396       .  A
C1412      C1413   1.407       .  A
C1412      H1417   1.081       .  S
C1413      C1414   1.423       .  A
C1414      C1415   1.522       .  S
C1415      F1419   1.384       .  S
C1415      F1420   1.384       .  S
C1415      F1421   1.380       .  S
C1418      F1422   1.381       .  S
C1418      F1423   1.383       .  S
C1418      F1424   1.385       .  S
C1425      C1426   1.402       .  A
C1425      C1430   1.411       .  A
C1425      H1432   1.074       .  S
C1426      C1427   1.425       .  A
C1427      C1434   1.515       .  S
C1427      C1428   1.424       .  A
C1428      C1429   1.411       .  A
C1428      H1433   1.084       .  S
C1429      C1430   1.424       .  A
C1430      C1431   1.514       .  S
C1431      F1435   1.386       .  S
C1431      F1436   1.379       .  S
C1431      F1437   1.372       .  S
C1434      F1438   1.381       .  S
C1434      F1439   1.381       .  S
C1434      F1440   1.384       .  S
C1441      C1442   1.414       .  A
C1441      C1446   1.427       .  A
C1441      H1448   1.077       .  S
C1442      C1443   1.440       .  A
C1443      C1450   1.522       .  S
C1443      C1444   1.420       .  A
C1444      C1445   1.402       .  A
C1444      H1449   1.081       .  S
C1445      C1446   1.424       .  A
C1446      C1447   1.518       .  S
C1447      F1451   1.384       .  S
C1447      F1452   1.378       .  S
C1447      F1453   1.382       .  S
C1450      F1454   1.383       .  S
C1450      F1456   1.385       .  S
C1457      C1458   1.399       .  A
C1457      C1462   1.406       .  A
C1457      H1464   1.083       .  S
C1458      C1459   1.404       .  A
C1459      C1466   1.517       .  S
C1459      C1460   1.379       .  A
C1460      C1461   1.409       .  A
C1460      H1465   1.083       .  S
C1461      C1462   1.426       .  A
C1462      C1463   1.520       .  S
C1463      F1467   1.385       .  S
C1463      F1468   1.382       .  S
C1463      F1469   1.380       .  S
C1466      F1470   1.378       .  S
C1466      F1471   1.380       .  S
C1466      F1472   1.385       .  S
C1473      C1474   1.407       .  A
C1473      C1478   1.419       .  A
C1473      H1480   1.083       .  S
C1474      C1475   1.422       .  A
C1475      C1482   1.517       .  S
C1475      C1476   1.425       .  A
C1476      C1477   1.413       .  A
C1476      H1481   1.072       .  S
C1477      C1478   1.434       .  A
C1478      C1479   1.515       .  S
C1479      F1483   1.381       .  S
C1479      F1484   1.370       .  S
C1482      F1486   1.384       .  S
C1482      F1487   1.382       .  S
C1482      F1488   1.382       .  S
C1489      C1490   1.402       .  A
C1489      C1494   1.400       .  A
C1489      H1496   1.085       .  S
C1490      C1491   1.415       .  A
C1491      C1498   1.520       .  S
C1491      C1492   1.397       .  A
C1492      C1493   1.407       .  A
C1492      H1497   1.083       .  S
C1493      C1494   1.420       .  A
C1494      C1495   1.518       .  S
C1495      F1499   1.385       .  S
C1495      F1500   1.383       .  S
C1495      F1501   1.382       .  S
C1498      F1502   1.381       .  S
C1498      F1503   1.383       .  S
C1498      F1504   1.385       .  S
C1505      C1506   1.397       .  A
C1505      C1510   1.418       .  A
C1505      H1512   1.080       .  S
C1506      C1507   1.412       .  A
C1507      C1514   1.516       .  S
C1507      C1508   1.416       .  A
C1508      C1509   1.423       .  A
C1508      H1513   1.076       .  S
C1509      C1510   1.450       .  A
C1510      C1511   1.530       .  S
C1511      F1515   1.386       .  S
C1511      F1516   1.370       .  S
C1511      F1517   1.379       .  S
C1514      F1518   1.383       .  S
C1514      F1519   1.381       .  S
C1514      F1520   1.385       .  S
C1521      C1522   1.402       .  A
C1521      C1526   1.398       .  A
C1521      H1528   1.085       .  S
C1522      C1523   1.417       .  A
C1523      C1530   1.519       .  S
C1523      C1524   1.400       .  A
C1524      C1525   1.410       .  A
C1524      H1529   1.081       .  S
C1525      C1526   1.422       .  A
C1526      C1527   1.517       .  S
C1527      F1531   1.384       .  S
C1527      F1532   1.376       .  S
C1527      F1533   1.383       .  S
C1530      F1534   1.381       .  S
C1530      F1535   1.383       .  S
C1530      F1536   1.385       .  S
C1537      C1538   1.404       .  A
C1537      C1542   1.409       .  A
C1537      H1544   1.082       .  S
C1538      C1539   1.427       .  A
C1539      C1546   1.518       .  S
C1539      C1540   1.427       .  A
C1540      C1541   1.411       .  A
C1540      H1545   1.080       .  S
C1541      C1542   1.426       .  A
C1542      C1543   1.510       .  S
C1543      F1547   1.385       .  S
C1543      F1548   1.372       .  S
C1543      F1549   1.380       .  S
C1546      F1550   1.383       .  S
C1546      F1551   1.383       .  S
C1546      F1552   1.385       .  S
C1553      C1554   1.391       .  A
C1553      C1558   1.395       .  A
C1553      H1560   1.085       .  S
C1554      C1555   1.408       .  A
C1555      C1562   1.518       .  S
C1555      C1556   1.399       .  A
C1556      C1557   1.410       .  A
C1556      H1561   1.077       .  S
C1557      C1558   1.435       .  A
C1558      C1559   1.526       .  S
C1559      F1563   1.384       .  S
C1559      F1564   1.383       .  S
C1559      F1565   1.374       .  S
C1562      F1566   1.384       .  S
C1562      F1567   1.377       .  S
C1562      F1568   1.384       .  S
C1569      C1570   1.408       .  A
C1569      C1574   1.414       .  A
C1569      H1576   1.084       .  S
C1570      C1571   1.433       .  A
C1571      C1578   1.517       .  S
C1571      C1572   1.431       .  A
C1572      C1573   1.410       .  A
C1572      H1577   1.079       .  S
C1573      C1574   1.430       .  A
C1574      C1575   1.514       .  S
C1575      F1579   1.382       .  S
C1575      F1580   1.369       .  S
C1575      F1581   1.383       .  S
C1578      F1582   1.381       .  S
C1578      F1583   1.382       .  S
C1578      F1584   1.384       .  S
C1585      C1586   1.412       .  A
C1585      C1590   1.403       .  A
C1585      H1592   1.078       .  S
C1586      C1587   1.435       .  A
C1587      C1594   1.518       .  S
C1587      C1588   1.394       .  A
C1588      C1589   1.390       .  A
C1588      H1593   1.086       .  S
C1589      C1590   1.408       .  A
C1590      C1591   1.515       .  S
C1591      F1595   1.384       .  S
C1591      F1596   1.381       .  S
C1591      F1597   1.383       .  S
C1594      F1598   1.381       .  S
C1594      F1599   1.368       .  S
C1594      F1600   1.385       .  S
C1601      C1602   1.410       .  A
C1601      C1606   1.402       .  A
C1601      H1608   1.079       .  S
C1602      C1603   1.424       .  A
C1603      C1610   1.522       .  S
C1603      C1604   1.395       .  A
C1604      C1605   1.400       .  A
C1604      H1609   1.085       .  S
C1605      C1606   1.412       .  A
C1606      C1607   1.518       .  S
C1607      F1611   1.385       .  S
C1607      F1612   1.384       .  S
C1607      F1613   1.383       .  S
C1610      F1614   1.384       .  S
C1610      F1615   1.377       .  S
C1610      F1616   1.384       .  S
C1617      C1618   1.393       .  A
C1617      C1622   1.413       .  A
C1617      H1624   1.084       .  S
C1618      C1619   1.419       .  A
C1619      C1626   1.513       .  S
C1619      C1620   1.427       .  A
C1620      C1621   1.413       .  A
C1620      H1625   1.077       .  S
C1621      C1622   1.436       .  A
C1622      C1623   1.510       .  S
C1623      F1627   1.385       .  S
C1623      F1628   1.368       .  S
C1623      F1629   1.381       .  S
C1626      F1630   1.382       .  S
C1626      F1631   1.383       .  S
C1626      F1632   1.385       .  S
O1633     Ni1641   1.931       .  S
O1633      C1643   1.281       .  A
O1634     Ni2457   1.940       .  S
O1634      C1644   1.288       .  A
O1635     Ni2457   1.896       .  S
O1635      C1645   1.277       .  A
O1636     Ni1641   1.889       .  S
O1636      C1646   1.278       .  A
O1637     Ni2458   1.912       .  S
O1637      C1646   1.278       .  A
O1638     Ni1642   1.914       .  S
O1638      C1645   1.279       .  A
O1639     Ni1642   1.966       .  S
O1639      C1644   1.290       .  A
O1640     Ni2458   1.965       .  S
O1640      C1643   1.290       .  A
Ni1641     O2450   1.929   1_545  S
Ni1641     O2451   1.893   1_545  S
Ni1641    Ni2458   2.382       .  S
Ni1642     O2453   1.914       .  S
Ni1642     O2456   1.967       .  S
Ni1642    Ni2457   2.381       .  S
C1643      C2026   1.513       .  S
C1644      C1978   1.537       .  S
C1645      C1997   1.462       .  S
C1646      C2013   1.462       .  S
C1647      C1648   1.507       .  S
C1647      C1653   1.563       .  S
C1647      C1651   1.532       .  S
C1647      C2010   1.529       .  S
C1648      H1655   1.078       .  S
C1648      C2057   1.350       .  D
C1649      C1650   1.592       .  S
C1649      C2056   1.344   1_554  D
C1649      C2133   1.502       .  S
C1650      C1654   1.561       .  S
C1650      C1652   1.573   1_554  S
C1650      H1656   1.110       .  S
C1651      H1657   1.082       .  S
C1651      C2060   1.357       .  D
C1652      C2059   1.356       .  D
C1652      C2098   1.500   1_556  S
C1653      H2066   1.078       .  S
C1653      C2062   1.362       .  D
C1654      C2061   1.367   1_554  D
C1654      C2029   1.540       .  S
H1658      C2061   1.084       .  S
C1659      C1660   1.548       .  S
C1659      C1665   1.546       .  S
C1659      C1663   1.522       .  S
C1659      C1994   1.540       .  S
C1660      H1667   1.079       .  S
C1660      C2069   1.359       .  D
C1661      C1662   1.566       .  S
C1661      C2068   1.358       .  D
C1661      C2171   1.497       .  S
C1662      C1666   1.568       .  S
C1662      C1664   1.552       .  S
C1662      H1668   1.110       .  S
C1663      H1669   1.067       .  S
C1663      C2072   1.360       .  D
C1664      C2071   1.361       .  D
C1664      C2110   1.496       .  S
C1665      H2078   1.084       .  S
C1665      C2074   1.362   1_554  D
C1666      C2073   1.365       .  D
C1666      C1981   1.534       .  S
H1670      C2073   1.084       .  S
O1671     Ni1679   1.908       .  S
O1671      C1681   1.281       .  A
O1672     Ni2495   1.901   1_545  S
O1672      C1682   1.278       .  A
O1673     Ni2495   1.941   1_545  S
O1673      C1683   1.284       .  A
O1674     Ni1679   1.943       .  S
O1674      C1684   1.285       .  A
O1675     Ni1680   1.933       .  S
O1675      C1684   1.284       .  A
O1676     Ni2496   1.926   1_545  S
O1676      C1683   1.285       .  A
O1677     Ni2496   1.901   1_545  S
O1677      C1682   1.278       .  A
O1678     Ni1680   1.891       .  S
O1678      C1681   1.274       .  A
Ni1679     O2488   1.904       .  S
Ni1679     O2489   1.941       .  S
Ni1679    Ni1680   2.384       .  S
Ni1680     O2492   1.926       .  S
Ni1680     O2493   1.892       .  S
C1681      C1930   1.471       .  S
C1682      C1962   1.460       .  S
C1683      C1946   1.515       .  S
C1684      C1914   1.504       .  S
C1685      C1686   1.517       .  S
C1685      C1691   1.545       .  S
C1685      C1689   1.547       .  S
C1685      C1965   1.524       .  S
C1686      H1693   1.087       .  S
C1686      C2095   1.353       .  D
C1687      C1688   1.560       .  S
C1687      C2094   1.353       .  D
C1687      C2145   1.483       .  S
C1688      C1692   1.565       .  S
C1688      C1690   1.568       .  S
C1688      H1694   1.110       .  S
C1689      H1695   1.082       .  S
C1689      C2098   1.366       .  D
C1690      C2097   1.365       .  D
C1690      C2060   1.500       .  S
C1691      H2104   1.085       .  S
C1691      C2100   1.357   1_554  D
C1692      C2099   1.360       .  D
C1692      C1949   1.524       .  S
H1696      C2099   1.085       .  S
C1697      C1698   1.509       .  S
C1697      C1703   1.557       .  S
C1697      C1701   1.533       .  S
C1697      C1933   1.528       .  S
C1698      H1705   1.087       .  S
C1698      C2107   1.349       .  D
C1699      C1700   1.571   1_556  S
C1699      C2106   1.349       .  D
C1699      C2183   1.480       .  S
C1700      C1704   1.554       .  S
C1700      C1702   1.561   1_554  S
C1700      H1706   1.096       .  S
C1701      H1707   1.086       .  S
C1701      C2110   1.354       .  D
C1702      C2109   1.355       .  D
C1702      C2072   1.492   1_556  S
C1703      H2116   1.080       .  S
C1703      C2112   1.386       .  D
C1704      C2111   1.387   1_554  D
C1704      C1917   1.552       .  S
H1708      C2111   1.080       .  S
O1709     Ni1717   1.895       .  S
O1709      C1719   1.274       .  A
O1710      C1720   1.276       .  A
O1711      C1721   1.289       .  A
O1712     Ni1717   1.960       .  S
O1712      C1722   1.290       .  A
O1713     Ni1718   1.943       .  S
O1713      C1722   1.285       .  A
O1714      C1721   1.287       .  A
O1715      C1720   1.277       .  A
O1716     Ni1718   1.895       .  S
O1716      C1719   1.277       .  A
Ni1717    Ni1718   2.384       .  S
C1719      C1866   1.447       .  S
C1720      C1898   1.463       .  S
C1721      C1882   1.534       .  S
C1722      C1853   1.520       .  S
C1723      C1724   1.513       .  S
C1723      C1729   1.564       .  S
C1723      C1727   1.529       .  S
C1723      C1901   1.521       .  S
C1724      H1731   1.085       .  S
C1724      C2133   1.347       .  D
C1725      C1726   1.587       .  S
C1725      C2132   1.349       .  D
C1725      C2057   1.504       .  S
C1726      C1730   1.565       .  S
C1726      C1728   1.582       .  S
C1726      H1732   1.110       .  S
C1727      H1733   1.076       .  S
C1727      C2136   1.361       .  D
C1728      C2135   1.358       .  D
C1728      C2174   1.511       .  S
C1729      H2142   1.087       .  S
C1729      C2138   1.361   1_554  D
C1730      C2137   1.365       .  D
C1730      C1885   1.541       .  S
H1734      C2137   1.086       .  S
C1735      C1736   1.524       .  S
C1735      C1741   1.559       .  S
C1735      C1739   1.510       .  S
C1735      C1869   1.520       .  S
C1736      H1743   1.074       .  S
C1736      C2145   1.362       .  D
C1737      C1738   1.562   1_556  S
C1737      C2144   1.362       .  D
C1737      C2095   1.475   1_556  S
C1738      C1742   1.560       .  S
C1738      C1740   1.583   1_554  S
C1738      H1744   1.109       .  S
C1739      H1745   1.078       .  S
C1739      C2148   1.342       .  D
C1740      C2147   1.340       .  D
C1740      C2186   1.492       .  S
C1741      H2154   1.079       .  S
C1741      C2150   1.362       .  D
C1742      C2149   1.363   1_554  D
C1742      C1850   1.546       .  S
H1746      C2149   1.082       .  S
O1747     Ni1755   1.939   1_655  S
O1747      C1757   1.284       .  A
O1748      C1758   1.286       .  A
O1749      C1759   1.277       .  A
O1750     Ni1755   1.878   1_655  S
O1750      C1760   1.275       .  A
O1751     Ni1756   1.889       .  S
O1751      C1760   1.276       .  A
O1752      C1759   1.275       .  A
O1753      C1758   1.288       .  A
O1754     Ni1756   1.952       .  S
O1754      C1757   1.289       .  A
Ni1755    Ni1756   2.387   1_455  S
C1757      C1786   1.510       .  S
C1758      C1837   1.519       .  S
C1759      C1818   1.454       .  S
C1760      C1802   1.441       .  S
C1761      C1762   1.497       .  S
C1761      C1767   1.560       .  S
C1761      C1765   1.528       .  S
C1761      C1821   1.511       .  S
C1762      H1769   1.084       .  S
C1762      C2171   1.344       .  D
C1763      C1764   1.580       .  S
C1763      C2170   1.345   1_554  D
C1763      C2069   1.491       .  S
C1764      C1768   1.559       .  S
C1764      C1766   1.581       .  S
C1764      H1770   1.110       .  S
C1765      H1771   1.083       .  S
C1765      C2174   1.358       .  D
C1766      C2173   1.361   1_554  D
C1766      C2136   1.511       .  S
C1767      H2180   1.086       .  S
C1767      C2176   1.366       .  D
C1768      C2175   1.365   1_554  D
C1768      C1834   1.523       .  S
H1772      C2175   1.086       .  S
C1773      C1774   1.535       .  S
C1773      C1779   1.533       .  S
C1773      C1777   1.506       .  S
C1773      C1805   1.506       .  S
C1774      H1781   1.079       .  S
C1774      C2183   1.357   1_554  D
C1775      C1776   1.563       .  S
C1775      C2182   1.355       .  D
C1775      C2107   1.486       .  S
C1776      C1780   1.573       .  S
C1776      C1778   1.584       .  S
C1776      H1782   1.110       .  S
C1777      H1783   1.075       .  S
C1777      C2186   1.343   1_554  D
C1778      C2185   1.347       .  D
C1778      C2148   1.498       .  S
C1779      H2192   1.081       .  S
C1779      C2188   1.359   1_554  D
C1780      C2187   1.360       .  D
C1780      C1789   1.533       .  S
H1784      C2187   1.080       .  S
C1785      C1786   1.398       .  A
C1785      C1790   1.413       .  A
C1785      H1792   1.083       .  S
C1786      C1787   1.429       .  A
C1787      C1794   1.517       .  S
C1787      C1788   1.423       .  A
C1788      C1789   1.409       .  A
C1788      H1793   1.078       .  S
C1789      C1790   1.437       .  A
C1790      C1791   1.521       .  S
C1791      F1795   1.384       .  S
C1791      F2204   1.383       .  S
C1791      F1797   1.379       .  S
C1794      F1798   1.377       .  S
C1794      F1799   1.383       .  S
C1794      F1800   1.378       .  S
F1796      C2199   1.383       .  S
C1801      C1802   1.393       .  A
C1801      C1806   1.389       .  A
C1801      H1808   1.084       .  S
C1802      C1803   1.405       .  A
C1803      C1810   1.521       .  S
C1803      C1804   1.387       .  A
C1804      C1805   1.408       .  A
C1804      H1809   1.072       .  S
C1805      C1806   1.434       .  A
C1806      C1807   1.534       .  S
C1807      F1811   1.382       .  S
C1807      F2220   1.382       .  S
C1807      F1813   1.375       .  S
C1810      F1814   1.383       .  S
C1810      F1815   1.380       .  S
C1810      F1816   1.384       .  S
F1812      C2215   1.382       .  S
C1817      C1818   1.399       .  A
C1817      C1822   1.392       .  A
C1817      H1824   1.086       .  S
C1818      C1819   1.413       .  A
C1819      C1826   1.519       .  S
C1819      C1820   1.395       .  A
C1820      C1821   1.406       .  A
C1820      H1825   1.082       .  S
C1821      C1822   1.422       .  A
C1822      C1823   1.521       .  S
C1823      F1827   1.385       .  S
C1823      F1828   1.384       .  S
C1823      F1829   1.380       .  S
C1826      F1830   1.382       .  S
C1826      F1831   1.383       .  S
C1826      F1832   1.385       .  S
C1833      C1834   1.404       .  A
C1833      C1838   1.412       .  A
C1833      H1840   1.071       .  S
C1834      C1835   1.427       .  A
C1835      C1842   1.514       .  S
C1835      C1836   1.425       .  A
C1836      C1837   1.411       .  A
C1836      H1841   1.084       .  S
C1837      C1838   1.422       .  A
C1838      C1839   1.516       .  S
C1839      F1843   1.385       .  S
C1839      F1844   1.380       .  S
C1839      F1845   1.375       .  S
C1842      F1846   1.379       .  S
C1842      F1847   1.381       .  S
C1842      F1848   1.384       .  S
C1849      C1850   1.413       .  A
C1849      C1854   1.425       .  A
C1849      H1856   1.077       .  S
C1850      C1851   1.438       .  A
C1851      C1858   1.522       .  S
C1851      C1852   1.421       .  A
C1852      C1853   1.404       .  A
C1852      H1857   1.081       .  S
C1853      C1854   1.423       .  A
C1854      C1855   1.517       .  S
C1855      F1859   1.384       .  S
C1855      F1860   1.378       .  S
C1855      F1861   1.382       .  S
C1858      F1862   1.383       .  S
C1858      F2271   1.381       .  S
C1858      F1864   1.384       .  S
F1863      C2266   1.381       .  S
C1865      C1866   1.399       .  A
C1865      C1870   1.407       .  A
C1865      H1872   1.084       .  S
C1866      C1867   1.404       .  A
C1867      C1874   1.518       .  S
C1867      C1868   1.378       .  A
C1868      C1869   1.410       .  A
C1868      H1873   1.083       .  S
C1869      C1870   1.426       .  A
C1870      C1871   1.519       .  S
C1871      F1875   1.386       .  S
C1871      F1876   1.382       .  S
C1871      F1877   1.379       .  S
C1874      F1878   1.380       .  S
C1874      F1879   1.380       .  S
C1874      F1880   1.385       .  S
C1881      C1882   1.408       .  A
C1881      C1886   1.418       .  A
C1881      H1888   1.084       .  S
C1882      C1883   1.427       .  A
C1883      C1890   1.516       .  S
C1883      C1884   1.430       .  A
C1884      C1885   1.413       .  A
C1884      H1889   1.077       .  S
C1885      C1886   1.431       .  A
C1886      C1887   1.512       .  S
C1887      F1891   1.381       .  S
C1887      F1892   1.368       .  S
C1887      F2301   1.383       .  S
C1890      F1894   1.384       .  S
C1890      F1895   1.383       .  S
C1890      F1896   1.378       .  S
F1893      C2295   1.383       .  S
C1897      C1898   1.402       .  A
C1897      C1902   1.401       .  A
C1897      H1904   1.085       .  S
C1898      C1899   1.413       .  A
C1899      C1906   1.520       .  S
C1899      C1900   1.393       .  A
C1900      C1901   1.407       .  A
C1900      H1905   1.083       .  S
C1901      C1902   1.421       .  A
C1902      C1903   1.520       .  S
C1903      F1907   1.385       .  S
C1903      F1908   1.383       .  S
C1903      F1909   1.382       .  S
C1906      F1910   1.381       .  S
C1906      F1911   1.382       .  S
C1906      F1912   1.385       .  S
C1913      C1914   1.399       .  A
C1913      C1918   1.416       .  A
C1913      H1920   1.082       .  S
C1914      C1915   1.415       .  A
C1915      C1922   1.516       .  S
C1915      C1916   1.416       .  A
C1916      C1917   1.419       .  A
C1916      H1921   1.077       .  S
C1917      C1918   1.443       .  A
C1918      C1919   1.526       .  S
C1919      F1923   1.386       .  S
C1919      F1924   1.369       .  S
C1919      F1925   1.380       .  S
C1922      F1926   1.382       .  S
C1922      F1927   1.380       .  S
C1922      F1928   1.385       .  S
C1929      C1930   1.400       .  A
C1929      C1934   1.397       .  A
C1929      H1936   1.085       .  S
C1930      C1931   1.418       .  A
C1931      C1938   1.521       .  S
C1931      C1932   1.398       .  A
C1932      C1933   1.409       .  A
C1932      H1937   1.080       .  S
C1933      C1934   1.424       .  A
C1934      C1935   1.517       .  S
C1935      F1939   1.384       .  S
C1935      F1940   1.375       .  S
C1935      F1941   1.383       .  S
C1938      F1942   1.381       .  S
C1938      F1943   1.383       .  S
C1938      F1944   1.385       .  S
C1945      C1946   1.403       .  A
C1945      C1950   1.410       .  A
C1945      H1952   1.082       .  S
C1946      C1947   1.427       .  A
C1947      C1954   1.518       .  S
C1947      C1948   1.424       .  A
C1948      C1949   1.409       .  A
C1948      H1953   1.080       .  S
C1949      C1950   1.428       .  A
C1950      C1951   1.511       .  S
C1951      F1955   1.385       .  S
C1951      F1956   1.370       .  S
C1951      F1957   1.379       .  S
C1954      F1958   1.383       .  S
C1954      F1959   1.383       .  S
C1954      F1960   1.385       .  S
C1961      C1962   1.391       .  A
C1961      C1966   1.396       .  A
C1961      H1968   1.084       .  S
C1962      C1963   1.408       .  A
C1963      C1970   1.516       .  S
C1963      C1964   1.400       .  A
C1964      C1965   1.410       .  A
C1964      H1969   1.077       .  S
C1965      C1966   1.435       .  A
C1966      C1967   1.526       .  S
C1967      F1971   1.384       .  S
C1967      F1972   1.383       .  S
C1967      F1973   1.374       .  S
C1970      F1974   1.384       .  S
C1970      F1975   1.376       .  S
C1970      F1976   1.384       .  S
C1977      C1978   1.408       .  A
C1977      C1982   1.414       .  A
C1977      H1984   1.083       .  S
C1978      C1979   1.433       .  A
C1979      C1986   1.517       .  S
C1979      C1980   1.433       .  A
C1980      C1981   1.412       .  A
C1980      H1985   1.080       .  S
C1981      C1982   1.430       .  A
C1982      C1983   1.514       .  S
C1983      F1987   1.383       .  S
C1983      F1988   1.367       .  S
C1983      F1989   1.382       .  S
C1986      F1990   1.381       .  S
C1986      F1991   1.383       .  S
C1986      F1992   1.384       .  S
C1993      C1994   1.413       .  A
C1993      C1998   1.405       .  A
C1993      H2000   1.077       .  S
C1994      C1995   1.435       .  A
C1995      C2002   1.520       .  S
C1995      C1996   1.396       .  A
C1996      C1997   1.392       .  A
C1996      H2001   1.086       .  S
C1997      C1998   1.409       .  A
C1998      C1999   1.518       .  S
C1999      F2003   1.385       .  S
C1999      F2004   1.381       .  S
C1999      F2005   1.383       .  S
C2002      F2006   1.381       .  S
C2002      F2007   1.368       .  S
C2002      F2008   1.385       .  S
C2009      C2010   1.413       .  A
C2009      C2014   1.402       .  A
C2009      H2016   1.079       .  S
C2010      C2011   1.425       .  A
C2011      C2018   1.522       .  S
C2011      C2012   1.394       .  A
C2012      C2013   1.398       .  A
C2012      H2017   1.085       .  S
C2013      C2014   1.409       .  A
C2014      C2015   1.518       .  S
C2015      F2019   1.385       .  S
C2015      F2020   1.383       .  S
C2015      F2021   1.383       .  S
C2018      F2022   1.384       .  S
C2018      F2023   1.377       .  S
C2018      F2024   1.384       .  S
C2025      C2026   1.395       .  A
C2025      C2030   1.411       .  A
C2025      H2032   1.086       .  S
C2026      C2027   1.423       .  A
C2027      C2034   1.513       .  S
C2027      C2028   1.432       .  A
C2028      C2029   1.414       .  A
C2028      H2033   1.080       .  S
C2029      C2030   1.436       .  A
C2030      C2031   1.505       .  S
C2031      F2035   1.385       .  S
C2031      F2036   1.363       .  S
C2031      F2037   1.383       .  S
C2034      F2038   1.382       .  S
C2034      F2039   1.382       .  S
C2034      F2040   1.385       .  S
O2041     Ni2049   1.934       .  S
O2041      C2051   1.283       .  A
O2042     Ni2865   1.933       .  S
O2042      C2052   1.287       .  A
O2043     Ni2865   1.896       .  S
O2043      C2053   1.277       .  A
O2044     Ni2049   1.895       .  S
O2044      C2054   1.279       .  A
O2045     Ni2866   1.905       .  S
O2045      C2054   1.277       .  A
O2046     Ni2050   1.917       .  S
O2046      C2053   1.280       .  A
O2047     Ni2050   1.955       .  S
O2047      C2052   1.287       .  A
O2048     Ni2866   1.957       .  S
O2048      C2051   1.288       .  A
Ni2049     O2858   1.931   1_545  S
Ni2049     O2859   1.898   1_545  S
Ni2049    Ni2866   2.384       .  S
Ni2050     O2861   1.915       .  S
Ni2050     O2864   1.956       .  S
Ni2050    Ni2865   2.382       .  S
C2051      C2434   1.508       .  S
C2052      C2386   1.529       .  S
C2053      C2405   1.464       .  S
C2054      C2421   1.462       .  S
C2055      C2056   1.502       .  S
C2055      C2061   1.568       .  S
C2055      C2059   1.527       .  S
C2055      C2418   1.527       .  S
C2056      H2063   1.082       .  S
C2057      C2058   1.592       .  S
C2058      C2062   1.561       .  S
C2058      C2060   1.570       .  S
C2058      H2064   1.110       .  S
C2059      H2065   1.082       .  S
C2062      C2437   1.539       .  S
C2067      C2068   1.549       .  S
C2067      C2073   1.549       .  S
C2067      C2071   1.523       .  S
C2067      C2402   1.546       .  S
C2068      H2075   1.078       .  S
C2069      C2070   1.563   1_554  S
C2070      C2074   1.562       .  S
C2070      C2072   1.549   1_556  S
C2070      H2076   1.110       .  S
C2071      H2077   1.069       .  S
C2074      C2389   1.524       .  S
O2079     Ni2087   1.902       .  S
O2079      C2089   1.280       .  A
O2080     Ni2903   1.903   1_545  S
O2080      C2090   1.279       .  A
O2081     Ni2903   1.940   1_545  S
O2081      C2091   1.284       .  A
O2082     Ni2087   1.948       .  S
O2082      C2092   1.287       .  A
O2083     Ni2088   1.934       .  S
O2083      C2092   1.284       .  A
O2084     Ni2904   1.917   1_545  S
O2084      C2091   1.284       .  A
O2085     Ni2904   1.906   1_545  S
O2085      C2090   1.279       .  A
O2086     Ni2088   1.896       .  S
O2086      C2089   1.275       .  A
Ni2087     O2896   1.900       .  S
Ni2087     O2897   1.949       .  S
Ni2087    Ni2088   2.383       .  S
Ni2088     O2900   1.930       .  S
Ni2088     O2901   1.898       .  S
C2089      C2338   1.470       .  S
C2090      C2370   1.462       .  S
C2091      C2354   1.509       .  S
C2092      C2322   1.507       .  S
C2093      C2094   1.517       .  S
C2093      C2099   1.547       .  S
C2093      C2097   1.545       .  S
C2093      C2373   1.525       .  S
C2094      H2101   1.087       .  S
C2095      C2096   1.552   1_554  S
C2096      C2100   1.562       .  S
C2096      C2098   1.567   1_556  S
C2096      H2102   1.110       .  S
C2097      H2103   1.082       .  S
C2100      C2357   1.518       .  S
C2105      C2106   1.507       .  S
C2105      C2111   1.559       .  S
C2105      C2109   1.532       .  S
C2105      C2341   1.527       .  S
C2106      H2113   1.087       .  S
C2107      C2108   1.575       .  S
C2108      C2112   1.556       .  S
C2108      C2110   1.565       .  S
C2108      H2114   1.095       .  S
C2109      H2115   1.085       .  S
C2112      C2325   1.553       .  S
O2117     Ni2125   1.894       .  S
O2117      C2127   1.274       .  A
O2118      C2128   1.275       .  A
O2119      C2129   1.288       .  A
O2120     Ni2125   1.954       .  S
O2120      C2130   1.289       .  A
O2121     Ni2126   1.943       .  S
O2121      C2130   1.285       .  A
O2122      C2129   1.287       .  A
O2123      C2128   1.279       .  A
O2124     Ni2126   1.885       .  S
O2124      C2127   1.275       .  A
Ni2125    Ni2126   2.385       .  S
C2127      C2274   1.442       .  S
C2128      C2306   1.467       .  S
C2129      C2290   1.527       .  S
C2130      C2261   1.515       .  S
C2131      C2132   1.516       .  S
C2131      C2137   1.565       .  S
C2131      C2135   1.528       .  S
C2131      C2309   1.522       .  S
C2132      H2139   1.082       .  S
C2133      C2134   1.592   1_554  S
C2134      C2138   1.566       .  S
C2134      C2136   1.581   1_556  S
C2134      H2140   1.110       .  S
C2135      H2141   1.077       .  S
C2138      C2293   1.540       .  S
C2143      C2144   1.524       .  S
C2143      C2149   1.562       .  S
C2143      C2147   1.508       .  S
C2143      C2277   1.516       .  S
C2144      H2151   1.073       .  S
C2145      C2146   1.569       .  S
C2146      C2150   1.562       .  S
C2146      C2148   1.584       .  S
C2146      H2152   1.109       .  S
C2147      H2153   1.081       .  S
C2150      C2258   1.547       .  S
O2155     Ni2163   1.943   1_655  S
O2155      C2165   1.285       .  A
O2156      C2166   1.286       .  A
O2157      C2167   1.278       .  A
O2158     Ni2163   1.878   1_655  S
O2158      C2168   1.274       .  A
O2159     Ni2164   1.894       .  S
O2159      C2168   1.277       .  A
O2160      C2167   1.275       .  A
O2161      C2166   1.289       .  A
O2162     Ni2164   1.957       .  S
O2162      C2165   1.289       .  A
Ni2163    Ni2164   2.386   1_455  S
C2165      C2194   1.515       .  S
C2166      C2245   1.524       .  S
C2167      C2226   1.458       .  S
C2168      C2210   1.446       .  S
C2169      C2170   1.499       .  S
C2169      C2175   1.558       .  S
C2169      C2173   1.531       .  S
C2169      C2229   1.513       .  S
C2170      H2177   1.085       .  S
C2171      C2172   1.586       .  S
C2172      C2176   1.561       .  S
C2172      C2174   1.586       .  S
C2172      H2178   1.110       .  S
C2173      H2179   1.084       .  S
C2176      C2242   1.526       .  S
C2181      C2182   1.537       .  S
C2181      C2187   1.532       .  S
C2181      C2185   1.510       .  S
C2181      C2213   1.513       .  S
C2182      H2189   1.079       .  S
C2183      C2184   1.559       .  S
C2184      C2188   1.574       .  S
C2184      C2186   1.582       .  S
C2184      H2190   1.110       .  S
C2185      H2191   1.075       .  S
C2188      C2197   1.535       .  S
C2193      C2194   1.402       .  A
C2193      C2198   1.417       .  A
C2193      H2200   1.083       .  S
C2194      C2195   1.429       .  A
C2195      C2202   1.517       .  S
C2195      C2196   1.423       .  A
C2196      C2197   1.408       .  A
C2196      H2201   1.080       .  S
C2197      C2198   1.438       .  A
C2198      C2199   1.523       .  S
C2199      F2203   1.384       .  S
C2199      F2205   1.380       .  S
C2202      F2206   1.376       .  S
C2202      F2207   1.383       .  S
C2202      F2208   1.379       .  S
C2209      C2210   1.396       .  A
C2209      C2214   1.393       .  A
C2209      H2216   1.083       .  S
C2210      C2211   1.404       .  A
C2211      C2218   1.522       .  S
C2211      C2212   1.387       .  A
C2212      C2213   1.409       .  A
C2212      H2217   1.068       .  S
C2213      C2214   1.434       .  A
C2214      C2215   1.534       .  S
C2215      F2219   1.383       .  S
C2215      F2221   1.375       .  S
C2218      F2222   1.383       .  S
C2218      F2223   1.380       .  S
C2218      F2224   1.384       .  S
C2225      C2226   1.399       .  A
C2225      C2230   1.393       .  A
C2225      H2232   1.085       .  S
C2226      C2227   1.414       .  A
C2227      C2234   1.519       .  S
C2227      C2228   1.397       .  A
C2228      C2229   1.407       .  A
C2228      H2233   1.082       .  S
C2229      C2230   1.422       .  A
C2230      C2231   1.521       .  S
C2231      F2235   1.385       .  S
C2231      F2236   1.383       .  S
C2231      F2237   1.380       .  S
C2234      F2238   1.382       .  S
C2234      F2239   1.383       .  S
C2234      F2240   1.385       .  S
C2241      C2242   1.404       .  A
C2241      C2246   1.414       .  A
C2241      H2248   1.072       .  S
C2242      C2243   1.427       .  A
C2243      C2250   1.513       .  S
C2243      C2244   1.426       .  A
C2244      C2245   1.411       .  A
C2244      H2249   1.084       .  S
C2245      C2246   1.424       .  A
C2246      C2247   1.514       .  S
C2247      F2251   1.385       .  S
C2247      F2252   1.379       .  S
C2247      F2253   1.374       .  S
C2250      F2254   1.380       .  S
C2250      F2255   1.381       .  S
C2250      F2256   1.384       .  S
C2257      C2258   1.414       .  A
C2257      C2262   1.426       .  A
C2257      H2264   1.077       .  S
C2258      C2259   1.439       .  A
C2259      C2266   1.521       .  S
C2259      C2260   1.417       .  A
C2260      C2261   1.400       .  A
C2260      H2265   1.084       .  S
C2261      C2262   1.423       .  A
C2262      C2263   1.518       .  S
C2263      F2267   1.385       .  S
C2263      F2268   1.379       .  S
C2263      F2269   1.383       .  S
C2266      F2270   1.384       .  S
C2266      F2272   1.385       .  S
C2273      C2274   1.399       .  A
C2273      C2278   1.403       .  A
C2273      H2280   1.084       .  S
C2274      C2275   1.406       .  A
C2275      C2282   1.522       .  S
C2275      C2276   1.378       .  A
C2276      C2277   1.410       .  A
C2276      H2281   1.083       .  S
C2277      C2278   1.423       .  A
C2278      C2279   1.519       .  S
C2279      F2283   1.386       .  S
C2279      F2284   1.382       .  S
C2279      F2285   1.378       .  S
C2282      F2286   1.378       .  S
C2282      F2287   1.380       .  S
C2282      F2288   1.385       .  S
C2289      C2290   1.406       .  A
C2289      C2294   1.418       .  A
C2289      H2296   1.084       .  S
C2290      C2291   1.424       .  A
C2291      C2298   1.518       .  S
C2291      C2292   1.425       .  A
C2292      C2293   1.412       .  A
C2292      H2297   1.079       .  S
C2293      C2294   1.434       .  A
C2294      C2295   1.512       .  S
C2295      F2299   1.382       .  S
C2295      F2300   1.366       .  S
C2298      F2302   1.384       .  S
C2298      F2303   1.382       .  S
C2298      F2304   1.384       .  S
C2305      C2306   1.402       .  A
C2305      C2310   1.398       .  A
C2305      H2312   1.085       .  S
C2306      C2307   1.415       .  A
C2307      C2314   1.520       .  S
C2307      C2308   1.397       .  A
C2308      C2309   1.408       .  A
C2308      H2313   1.083       .  S
C2309      C2310   1.421       .  A
C2310      C2311   1.519       .  S
C2311      F2315   1.385       .  S
C2311      F2316   1.383       .  S
C2311      F2317   1.382       .  S
C2314      F2318   1.383       .  S
C2314      F2319   1.383       .  S
C2314      F2320   1.385       .  S
C2321      C2322   1.401       .  A
C2321      C2326   1.419       .  A
C2321      H2328   1.080       .  S
C2322      C2323   1.414       .  A
C2323      C2330   1.517       .  S
C2323      C2324   1.417       .  A
C2324      C2325   1.421       .  A
C2324      H2329   1.077       .  S
C2325      C2326   1.444       .  A
C2326      C2327   1.528       .  S
C2327      F2331   1.386       .  S
C2327      F2332   1.371       .  S
C2327      F2333   1.379       .  S
C2330      F2334   1.383       .  S
C2330      F2335   1.381       .  S
C2330      F2336   1.385       .  S
C2337      C2338   1.399       .  A
C2337      C2342   1.395       .  A
C2337      H2344   1.085       .  S
C2338      C2339   1.417       .  A
C2339      C2346   1.520       .  S
C2339      C2340   1.400       .  A
C2340      C2341   1.410       .  A
C2340      H2345   1.081       .  S
C2341      C2342   1.423       .  A
C2342      C2343   1.516       .  S
C2343      F2347   1.384       .  S
C2343      F2348   1.374       .  S
C2343      F2349   1.383       .  S
C2346      F2350   1.381       .  S
C2346      F2351   1.383       .  S
C2346      F2352   1.385       .  S
C2353      C2354   1.402       .  A
C2353      C2358   1.405       .  A
C2353      H2360   1.082       .  S
C2354      C2355   1.425       .  A
C2355      C2362   1.519       .  S
C2355      C2356   1.423       .  A
C2356      C2357   1.410       .  A
C2356      H2361   1.080       .  S
C2357      C2358   1.426       .  A
C2358      C2359   1.510       .  S
C2359      F2363   1.385       .  S
C2359      F2364   1.371       .  S
C2359      F2365   1.378       .  S
C2362      F2366   1.383       .  S
C2362      F2367   1.383       .  S
C2362      F2368   1.385       .  S
C2369      C2370   1.393       .  A
C2369      C2374   1.397       .  A
C2369      H2376   1.085       .  S
C2370      C2371   1.410       .  A
C2371      C2378   1.517       .  S
C2371      C2372   1.399       .  A
C2372      C2373   1.411       .  A
C2372      H2377   1.079       .  S
C2373      C2374   1.435       .  A
C2374      C2375   1.527       .  S
C2375      F2379   1.383       .  S
C2375      F2380   1.384       .  S
C2375      F2381   1.374       .  S
C2378      F2382   1.382       .  S
C2378      F2383   1.381       .  S
C2378      F2384   1.384       .  S
C2385      C2386   1.407       .  A
C2385      C2390   1.410       .  A
C2385      H2392   1.084       .  S
C2386      C2387   1.432       .  A
C2387      C2394   1.518       .  S
C2387      C2388   1.430       .  A
C2388      C2389   1.410       .  A
C2388      H2393   1.081       .  S
C2389      C2390   1.428       .  A
C2390      C2391   1.514       .  S
C2391      F2395   1.381       .  S
C2391      F2396   1.367       .  S
C2391      F2397   1.383       .  S
C2394      F2398   1.383       .  S
C2394      F2399   1.383       .  S
C2394      F2400   1.384       .  S
C2401      C2402   1.416       .  A
C2401      C2406   1.408       .  A
C2401      H2408   1.077       .  S
C2402      C2403   1.435       .  A
C2403      C2410   1.519       .  S
C2403      C2404   1.397       .  A
C2404      C2405   1.392       .  A
C2404      H2409   1.086       .  S
C2405      C2406   1.407       .  A
C2406      C2407   1.518       .  S
C2407      F2411   1.384       .  S
C2407      F2412   1.382       .  S
C2407      F2413   1.383       .  S
C2410      F2414   1.382       .  S
C2410      F2415   1.367       .  S
C2410      F2416   1.385       .  S
C2417      C2418   1.411       .  A
C2417      C2422   1.402       .  A
C2417      H2424   1.079       .  S
C2418      C2419   1.427       .  A
C2419      C2426   1.523       .  S
C2419      C2420   1.394       .  A
C2420      C2421   1.396       .  A
C2420      H2425   1.085       .  S
C2421      C2422   1.412       .  A
C2422      C2423   1.519       .  S
C2423      F2427   1.385       .  S
C2423      F2428   1.383       .  S
C2423      F2429   1.383       .  S
C2426      F2430   1.383       .  S
C2426      F2431   1.376       .  S
C2426      F2432   1.385       .  S
C2433      C2434   1.394       .  A
C2433      C2438   1.414       .  A
C2433      H2440   1.084       .  S
C2434      C2435   1.420       .  A
C2435      C2442   1.513       .  S
C2435      C2436   1.428       .  A
C2436      C2437   1.412       .  A
C2436      H2441   1.078       .  S
C2437      C2438   1.437       .  A
C2438      C2439   1.512       .  S
C2439      F2443   1.386       .  S
C2439      F2444   1.368       .  S
C2439      F2445   1.380       .  S
C2442      F2446   1.382       .  S
C2442      F2447   1.383       .  S
C2442      F2448   1.385       .  S
O2449     Ni2457   1.941       .  S
O2449      C2459   1.283       .  A
O2450      C2460   1.286       .  A
O2451      C2461   1.276       .  A
O2452     Ni2457   1.892       .  S
O2452      C2462   1.278       .  A
O2453      C2462   1.278       .  A
O2454     Ni2458   1.912   1_565  S
O2454      C2461   1.279       .  A
O2455     Ni2458   1.962   1_565  S
O2455      C2460   1.289       .  A
O2456      C2459   1.290       .  A
C2459      C2842   1.518       .  S
C2460      C2794   1.530       .  S
C2461      C2813   1.460       .  S
C2462      C2829   1.466       .  S
C2463      C2464   1.505       .  S
C2463      C2469   1.568       .  S
C2463      C2467   1.525       .  S
C2463      C2826   1.524       .  S
C2464      H2471   1.076       .  S
C2464      C2873   1.345       .  D
C2465      C2466   1.593   1_556  S
C2465      C2872   1.349       .  D
C2465      C2949   1.502   1_556  S
C2466      C2470   1.560       .  S
C2466      C2468   1.570   1_554  S
C2466      H2472   1.110       .  S
C2467      H2473   1.083       .  S
C2467      C2876   1.354       .  D
C2468      C2875   1.354       .  D
C2468      C2914   1.497   1_556  S
C2469      H2882   1.084       .  S
C2469      C2878   1.369       .  D
C2470      C2877   1.367   1_554  D
C2470      C2845   1.547       .  S
H2474      C2877   1.079       .  S
C2475      C2476   1.549       .  S
C2475      C2481   1.543       .  S
C2475      C2479   1.523       .  S
C2475      C2810   1.541       .  S
C2476      H2483   1.081       .  S
C2476      C2885   1.358       .  D
C2477      C2478   1.565       .  S
C2477      C2884   1.359       .  D
C2477      C2987   1.491       .  S
C2478      C2482   1.566       .  S
C2478      C2480   1.547       .  S
C2478      H2484   1.110       .  S
C2479      H2485   1.067       .  S
C2479      C2888   1.361       .  D
C2480      C2887   1.361       .  D
C2480      C2926   1.494       .  S
C2481      H2894   1.083       .  S
C2481      C2890   1.362   1_554  D
C2482      C2889   1.360       .  D
C2482      C2797   1.525       .  S
H2486      C2889   1.082       .  S
O2487     Ni2495   1.901       .  S
O2487      C2497   1.280       .  A
O2488      C2498   1.279       .  A
O2489      C2499   1.284       .  A
O2490     Ni2495   1.938       .  S
O2490      C2500   1.285       .  A
O2491     Ni2496   1.930       .  S
O2491      C2500   1.283       .  A
O2492      C2499   1.285       .  A
O2493      C2498   1.275       .  A
O2494     Ni2496   1.899       .  S
O2494      C2497   1.276       .  A
Ni2495    Ni2496   2.384       .  S
C2497      C2746   1.470       .  S
C2498      C2778   1.457       .  S
C2499      C2762   1.512       .  S
C2500      C2730   1.498       .  S
C2501      C2502   1.518       .  S
C2501      C2507   1.547       .  S
C2501      C2505   1.544       .  S
C2501      C2781   1.521       .  S
C2502      H2509   1.087       .  S
C2502      C2911   1.350   1_554  D
C2503      C2504   1.556       .  S
C2503      C2910   1.351       .  D
C2503      C2961   1.478       .  S
C2504      C2508   1.566       .  S
C2504      C2506   1.566       .  S
C2504      H2510   1.110       .  S
C2505      H2511   1.083       .  S
C2505      C2914   1.366       .  D
C2506      C2913   1.364       .  D
C2506      C2876   1.495       .  S
C2507      H2920   1.085       .  S
C2507      C2916   1.359   1_554  D
C2508      C2915   1.359       .  D
C2508      C2765   1.523       .  S
H2512      C2915   1.085       .  S
C2513      C2514   1.505       .  S
C2513      C2519   1.554       .  S
C2513      C2517   1.533       .  S
C2513      C2749   1.525       .  S
C2514      H2521   1.087       .  S
C2514      C2923   1.347       .  D
C2515      C2516   1.569   1_556  S
C2515      C2922   1.349       .  D
C2515      C2999   1.482   1_556  S
C2516      C2520   1.552       .  S
C2516      C2518   1.564   1_554  S
C2516      H2522   1.094       .  S
C2517      H2523   1.085       .  S
C2517      C2926   1.356       .  D
C2518      C2925   1.355       .  D
C2518      C2888   1.496   1_556  S
C2519      H2932   1.078       .  S
C2519      C2928   1.386       .  D
C2520      C2927   1.387   1_554  D
C2520      C2733   1.549       .  S
H2524      C2927   1.079       .  S
O2525     Ni2533   1.898       .  S
O2525      C2535   1.275       .  A
O2526      C2536   1.274       .  A
O2527      C2537   1.290       .  A
O2528     Ni2533   1.963       .  S
O2528      C2538   1.291       .  A
O2529     Ni2534   1.945       .  S
O2529      C2538   1.285       .  A
O2530      C2537   1.285       .  A
O2531      C2536   1.278       .  A
O2532     Ni2534   1.890       .  S
O2532      C2535   1.276       .  A
Ni2533    Ni2534   2.384       .  S
C2535      C2682   1.445       .  S
C2536      C2714   1.461       .  S
C2537      C2698   1.525       .  S
C2538      C2669   1.524       .  S
C2539      C2540   1.511       .  S
C2539      C2545   1.566       .  S
C2539      C2543   1.532       .  S
C2539      C2717   1.521       .  S
C2540      H2547   1.081       .  S
C2540      C2949   1.346       .  D
C2541      C2542   1.588       .  S
C2541      C2948   1.347       .  D
C2541      C2873   1.501       .  S
C2542      C2546   1.562       .  S
C2542      C2544   1.578       .  S
C2542      H2548   1.110       .  S
C2543      H2549   1.079       .  S
C2543      C2952   1.362       .  D
C2544      C2951   1.361       .  D
C2544      C2990   1.509       .  S
C2545      H2958   1.086       .  S
C2545      C2954   1.362   1_554  D
C2546      C2953   1.364       .  D
C2546      C2701   1.538       .  S
H2550      C2953   1.086       .  S
C2551      C2552   1.520       .  S
C2551      C2557   1.561       .  S
C2551      C2555   1.504       .  S
C2551      C2685   1.515       .  S
C2552      H2559   1.075       .  S
C2552      C2961   1.360       .  D
C2553      C2554   1.571   1_556  S
C2553      C2960   1.359       .  D
C2553      C2911   1.480       .  S
C2554      C2558   1.563       .  S
C2554      C2556   1.587   1_554  S
C2554      H2560   1.109       .  S
C2555      H2561   1.088       .  S
C2555      C2964   1.341       .  D
C2556      C2963   1.343       .  D
C2556      C3002   1.495       .  S
C2557      H2970   1.080       .  S
C2557      C2966   1.362       .  D
C2558      C2965   1.364   1_554  D
C2558      C2666   1.552       .  S
H2562      C2965   1.080       .  S
O2563     Ni2571   1.943   1_655  S
O2563      C2573   1.285       .  A
O2564      C2574   1.284       .  A
O2565      C2575   1.277       .  A
O2566     Ni2571   1.881   1_655  S
O2566      C2576   1.275       .  A
O2567     Ni2572   1.892       .  S
O2567      C2576   1.277       .  A
O2568      C2575   1.275       .  A
O2569      C2574   1.288       .  A
O2570     Ni2572   1.955       .  S
O2570      C2573   1.289       .  A
Ni2571    Ni2572   2.387   1_455  S
C2573      C2602   1.512       .  S
C2574      C2653   1.520       .  S
C2575      C2634   1.452       .  S
C2576      C2618   1.445       .  S
C2577      C2578   1.498       .  S
C2577      C2583   1.556       .  S
C2577      C2581   1.529       .  S
C2577      C2637   1.510       .  S
C2578      H2585   1.083       .  S
C2578      C2987   1.343       .  D
C2579      C2580   1.581       .  S
C2579      C2986   1.345   1_554  D
C2579      C2885   1.493       .  S
C2580      C2584   1.558       .  S
C2580      C2582   1.581       .  S
C2580      H2586   1.110       .  S
C2581      H2587   1.083       .  S
C2581      C2990   1.362       .  D
C2582      C2989   1.358   1_554  D
C2582      C2952   1.511       .  S
C2583      H2996   1.086       .  S
C2583      C2992   1.362       .  D
C2584      C2991   1.364   1_554  D
C2584      C2650   1.515       .  S
H2588      C2991   1.086       .  S
C2589      C2590   1.538       .  S
C2589      C2595   1.533       .  S
C2589      C2593   1.508       .  S
C2589      C2621   1.511       .  S
C2590      H2597   1.079       .  S
C2590      C2999   1.358       .  D
C2591      C2592   1.561       .  S
C2591      C2998   1.354       .  D
C2591      C2923   1.481       .  S
C2592      C2596   1.572       .  S
C2592      C2594   1.583       .  S
C2592      H2598   1.110       .  S
C2593      H2599   1.073       .  S
C2593      C3002   1.344   1_554  D
C2594      C3001   1.346       .  D
C2594      C2964   1.495       .  S
C2595      H3008   1.081       .  S
C2595      C3004   1.360   1_554  D
C2596      C3003   1.360       .  D
C2596      C2605   1.533       .  S
H2600      C3003   1.081       .  S
C2601      C2602   1.401       .  A
C2601      C2606   1.416       .  A
C2601      H2608   1.084       .  S
C2602      C2603   1.429       .  A
C2603      C2610   1.517       .  S
C2603      C2604   1.421       .  A
C2604      C2605   1.406       .  A
C2604      H2609   1.085       .  S
C2605      C2606   1.435       .  A
C2606      C2607   1.522       .  S
C2607      F2611   1.384       .  S
C2607      F3020   1.383       .  S
C2607      F2613   1.380       .  S
C2610      F2614   1.376       .  S
C2610      F2615   1.383       .  S
C2610      F2616   1.380       .  S
F2612      C3015   1.383       .  S
C2617      C2618   1.394       .  A
C2617      C2622   1.392       .  A
C2617      H2624   1.083       .  S
C2618      C2619   1.404       .  A
C2619      C2626   1.521       .  S
C2619      C2620   1.387       .  A
C2620      C2621   1.408       .  A
C2620      H2625   1.071       .  S
C2621      C2622   1.436       .  A
C2622      C2623   1.534       .  S
C2623      F2627   1.384       .  S
C2623      F3036   1.382       .  S
C2623      F2629   1.375       .  S
C2626      F2630   1.383       .  S
C2626      F2631   1.380       .  S
C2626      F2632   1.384       .  S
F2628      C3031   1.382       .  S
C2633      C2634   1.398       .  A
C2633      C2638   1.391       .  A
C2633      H2640   1.086       .  S
C2634      C2635   1.410       .  A
C2635      C2642   1.519       .  S
C2635      C2636   1.395       .  A
C2636      C2637   1.409       .  A
C2636      H2641   1.081       .  S
C2637      C2638   1.422       .  A
C2638      C2639   1.521       .  S
C2639      F2643   1.385       .  S
C2639      F2644   1.384       .  S
C2639      F2645   1.379       .  S
C2642      F2646   1.381       .  S
C2642      F2647   1.383       .  S
C2642      F2648   1.385       .  S
C2649      C2650   1.399       .  A
C2649      C2654   1.410       .  A
C2649      H2656   1.074       .  S
C2650      C2651   1.426       .  A
C2651      C2658   1.516       .  S
C2651      C2652   1.425       .  A
C2652      C2653   1.412       .  A
C2652      H2657   1.084       .  S
C2653      C2654   1.425       .  A
C2654      C2655   1.514       .  S
C2655      F2659   1.385       .  S
C2655      F2660   1.378       .  S
C2655      F2661   1.373       .  S
C2658      F2662   1.381       .  S
C2658      F2663   1.381       .  S
C2658      F2664   1.385       .  S
C2665      C2666   1.416       .  A
C2665      C2670   1.430       .  A
C2665      H2672   1.077       .  S
C2666      C2667   1.439       .  A
C2667      C2674   1.520       .  S
C2667      C2668   1.419       .  A
C2668      C2669   1.401       .  A
C2668      H2673   1.081       .  S
C2669      C2670   1.425       .  A
C2670      C2671   1.519       .  S
C2671      F2675   1.384       .  S
C2671      F2676   1.377       .  S
C2671      F2677   1.382       .  S
C2674      F2678   1.383       .  S
C2674      F3087   1.380       .  S
C2674      F2680   1.384       .  S
F2679      C3082   1.380       .  S
C2681      C2682   1.400       .  A
C2681      C2686   1.406       .  A
C2681      H2688   1.084       .  S
C2682      C2683   1.404       .  A
C2683      C2690   1.518       .  S
C2683      C2684   1.378       .  A
C2684      C2685   1.407       .  A
C2684      H2689   1.083       .  S
C2685      C2686   1.424       .  A
C2686      C2687   1.521       .  S
C2687      F2691   1.385       .  S
C2687      F2692   1.382       .  S
C2687      F2693   1.380       .  S
C2690      F2694   1.380       .  S
C2690      F2695   1.381       .  S
C2690      F2696   1.385       .  S
C2697      C2698   1.408       .  A
C2697      C2702   1.419       .  A
C2697      H2704   1.083       .  S
C2698      C2699   1.421       .  A
C2699      C2706   1.517       .  S
C2699      C2700   1.424       .  A
C2700      C2701   1.413       .  A
C2700      H2705   1.075       .  S
C2701      C2702   1.433       .  A
C2702      C2703   1.515       .  S
C2703      F2707   1.382       .  S
C2703      F2708   1.370       .  S
C2703      F3117   1.383       .  S
C2706      F2710   1.384       .  S
C2706      F2711   1.382       .  S
C2706      F2712   1.382       .  S
F2709      C3111   1.383       .  S
C2713      C2714   1.402       .  A
C2713      C2718   1.399       .  A
C2713      H2720   1.085       .  S
C2714      C2715   1.413       .  A
C2715      C2722   1.519       .  S
C2715      C2716   1.394       .  A
C2716      C2717   1.408       .  A
C2716      H2721   1.083       .  S
C2717      C2718   1.420       .  A
C2718      C2719   1.518       .  S
C2719      F2723   1.385       .  S
C2719      F2724   1.383       .  S
C2719      F2725   1.381       .  S
C2722      F2726   1.381       .  S
C2722      F2727   1.382       .  S
C2722      F2728   1.385       .  S
C2729      C2730   1.399       .  A
C2729      C2734   1.418       .  A
C2729      H2736   1.081       .  S
C2730      C2731   1.411       .  A
C2731      C2738   1.517       .  S
C2731      C2732   1.412       .  A
C2732      C2733   1.419       .  A
C2732      H2737   1.077       .  S
C2733      C2734   1.446       .  A
C2734      C2735   1.529       .  S
C2735      F2739   1.386       .  S
C2735      F2740   1.372       .  S
C2735      F2741   1.379       .  S
C2738      F2742   1.382       .  S
C2738      F2743   1.381       .  S
C2738      F2744   1.385       .  S
C2745      C2746   1.401       .  A
C2745      C2750   1.395       .  A
C2745      H2752   1.085       .  S
C2746      C2747   1.417       .  A
C2747      C2754   1.520       .  S
C2747      C2748   1.399       .  A
C2748      C2749   1.409       .  A
C2748      H2753   1.080       .  S
C2749      C2750   1.423       .  A
C2750      C2751   1.519       .  S
C2751      F2755   1.384       .  S
C2751      F2756   1.376       .  S
C2751      F2757   1.383       .  S
C2754      F2758   1.381       .  S
C2754      F2759   1.383       .  S
C2754      F2760   1.385       .  S
C2761      C2762   1.402       .  A
C2761      C2766   1.409       .  A
C2761      H2768   1.082       .  S
C2762      C2763   1.426       .  A
C2763      C2770   1.518       .  S
C2763      C2764   1.424       .  A
C2764      C2765   1.409       .  A
C2764      H2769   1.078       .  S
C2765      C2766   1.429       .  A
C2766      C2767   1.511       .  S
C2767      F2771   1.384       .  S
C2767      F2772   1.372       .  S
C2767      F2773   1.378       .  S
C2770      F2774   1.383       .  S
C2770      F2775   1.383       .  S
C2770      F2776   1.385       .  S
C2777      C2778   1.389       .  A
C2777      C2782   1.394       .  A
C2777      H2784   1.084       .  S
C2778      C2779   1.408       .  A
C2779      C2786   1.519       .  S
C2779      C2780   1.400       .  A
C2780      C2781   1.412       .  A
C2780      H2785   1.077       .  S
C2781      C2782   1.435       .  A
C2782      C2783   1.527       .  S
C2783      F2787   1.383       .  S
C2783      F2788   1.383       .  S
C2783      F2789   1.374       .  S
C2786      F2790   1.383       .  S
C2786      F2791   1.377       .  S
C2786      F2792   1.385       .  S
C2793      C2794   1.407       .  A
C2793      C2798   1.410       .  A
C2793      H2800   1.084       .  S
C2794      C2795   1.430       .  A
C2795      C2802   1.516       .  S
C2795      C2796   1.430       .  A
C2796      C2797   1.410       .  A
C2796      H2801   1.079       .  S
C2797      C2798   1.429       .  A
C2798      C2799   1.514       .  S
C2799      F2803   1.380       .  S
C2799      F2804   1.368       .  S
C2799      F2805   1.382       .  S
C2802      F2806   1.382       .  S
C2802      F2807   1.383       .  S
C2802      F2808   1.383       .  S
C2809      C2810   1.413       .  A
C2809      C2814   1.403       .  A
C2809      H2816   1.077       .  S
C2810      C2811   1.436       .  A
C2811      C2818   1.521       .  S
C2811      C2812   1.397       .  A
C2812      C2813   1.392       .  A
C2812      H2817   1.086       .  S
C2813      C2814   1.407       .  A
C2814      C2815   1.518       .  S
C2815      F2819   1.384       .  S
C2815      F2820   1.382       .  S
C2815      F2821   1.383       .  S
C2818      F2822   1.381       .  S
C2818      F2823   1.370       .  S
C2818      F2824   1.385       .  S
C2825      C2826   1.411       .  A
C2825      C2830   1.403       .  A
C2825      H2832   1.079       .  S
C2826      C2827   1.426       .  A
C2827      C2834   1.524       .  S
C2827      C2828   1.394       .  A
C2828      C2829   1.398       .  A
C2828      H2833   1.083       .  S
C2829      C2830   1.411       .  A
C2830      C2831   1.517       .  S
C2831      F2835   1.385       .  S
C2831      F2836   1.383       .  S
C2831      F2837   1.383       .  S
C2834      F2838   1.384       .  S
C2834      F2839   1.376       .  S
C2834      F2840   1.384       .  S
C2841      C2842   1.397       .  A
C2841      C2846   1.418       .  A
C2841      H2848   1.084       .  S
C2842      C2843   1.423       .  A
C2843      C2850   1.513       .  S
C2843      C2844   1.431       .  A
C2844      C2845   1.413       .  A
C2844      H2849   1.077       .  S
C2845      C2846   1.436       .  A
C2846      C2847   1.511       .  S
C2847      F2851   1.385       .  S
C2847      F2852   1.371       .  S
C2847      F2853   1.381       .  S
C2850      F2854   1.381       .  S
C2850      F2855   1.383       .  S
C2850      F2856   1.385       .  S
O2857     Ni2865   1.933       .  S
O2857      C2867   1.283       .  A
O2858      C2868   1.286       .  A
O2859      C2869   1.278       .  A
O2860     Ni2865   1.894       .  S
O2860      C2870   1.278       .  A
O2861      C2870   1.279       .  A
O2862     Ni2866   1.907   1_565  S
O2862      C2869   1.278       .  A
O2863     Ni2866   1.955   1_565  S
O2863      C2868   1.288       .  A
O2864      C2867   1.287       .  A
C2867      C3250   1.507       .  S
C2868      C3202   1.527       .  S
C2869      C3221   1.461       .  S
C2870      C3237   1.469       .  S
C2871      C2872   1.506       .  S
C2871      C2877   1.568       .  S
C2871      C2875   1.527       .  S
C2871      C3234   1.531       .  S
C2872      H2879   1.076       .  S
C2873      C2874   1.589       .  S
C2874      C2878   1.559       .  S
C2874      C2876   1.572       .  S
C2874      H2880   1.110       .  S
C2875      H2881   1.081       .  S
C2878      C3253   1.539       .  S
C2883      C2884   1.550       .  S
C2883      C2889   1.541       .  S
C2883      C2887   1.526       .  S
C2883      C3218   1.542       .  S
C2884      H2891   1.081       .  S
C2885      C2886   1.564   1_554  S
C2886      C2890   1.566       .  S
C2886      C2888   1.550   1_556  S
C2886      H2892   1.110       .  S
C2887      H2893   1.069       .  S
C2890      C3205   1.524       .  S
O2895     Ni2903   1.906       .  S
O2895      C2905   1.280       .  A
O2896      C2906   1.278       .  A
O2897      C2907   1.286       .  A
O2898     Ni2903   1.942       .  S
O2898      C2908   1.286       .  A
O2899     Ni2904   1.928       .  S
O2899      C2908   1.282       .  A
O2900      C2907   1.286       .  A
O2901      C2906   1.278       .  A
O2902     Ni2904   1.903       .  S
O2902      C2905   1.277       .  A
Ni2903    Ni2904   2.385       .  S
C2905      C3154   1.473       .  S
C2906      C3186   1.455       .  S
C2907      C3170   1.522       .  S
C2908      C3138   1.498       .  S
C2909      C2910   1.517       .  S
C2909      C2915   1.543       .  S
C2909      C2913   1.545       .  S
C2909      C3189   1.520       .  S
C2910      H2917   1.087       .  S
C2911      C2912   1.559       .  S
C2912      C2916   1.569       .  S
C2912      C2914   1.569   1_556  S
C2912      H2918   1.110       .  S
C2913      H2919   1.082       .  S
C2916      C3173   1.529       .  S
C2921      C2922   1.508       .  S
C2921      C2927   1.555       .  S
C2921      C2925   1.532       .  S
C2921      C3157   1.529       .  S
C2922      H2929   1.087       .  S
C2923      C2924   1.572       .  S
C2924      C2928   1.557       .  S
C2924      C2926   1.563       .  S
C2924      H2930   1.094       .  S
C2925      H2931   1.086       .  S
C2928      C3141   1.554       .  S
O2933     Ni2941   1.896       .  S
O2933      C2943   1.274       .  A
O2934      C2944   1.275       .  A
O2935      C2945   1.290       .  A
O2936     Ni2941   1.957       .  S
O2936      C2946   1.290       .  A
O2937     Ni2942   1.943       .  S
O2937      C2946   1.284       .  A
O2938      C2945   1.286       .  A
O2939      C2944   1.278       .  A
O2940     Ni2942   1.893       .  S
O2940      C2943   1.277       .  A
Ni2941    Ni2942   2.384       .  S
C2943      C3090   1.445       .  S
C2944      C3122   1.466       .  S
C2945      C3106   1.529       .  S
C2946      C3077   1.518       .  S
C2947      C2948   1.512       .  S
C2947      C2953   1.565       .  S
C2947      C2951   1.532       .  S
C2947      C3125   1.524       .  S
C2948      H2955   1.081       .  S
C2949      C2950   1.588   1_554  S
C2950      C2954   1.563       .  S
C2950      C2952   1.582   1_556  S
C2950      H2956   1.110       .  S
C2951      H2957   1.078       .  S
C2954      C3109   1.539       .  S
C2959      C2960   1.519       .  S
C2959      C2965   1.562       .  S
C2959      C2963   1.507       .  S
C2959      C3093   1.517       .  S
C2960      H2967   1.074       .  S
C2961      C2962   1.569       .  S
C2962      C2966   1.561       .  S
C2962      C2964   1.585       .  S
C2962      H2968   1.109       .  S
C2963      H2969   1.079       .  S
C2966      C3074   1.547       .  S
O2971     Ni2979   1.940   1_655  S
O2971      C2981   1.284       .  A
O2972      C2982   1.286       .  A
O2973      C2983   1.277       .  A
O2974     Ni2979   1.876   1_655  S
O2974      C2984   1.275       .  A
O2975     Ni2980   1.888       .  S
O2975      C2984   1.276       .  A
O2976      C2983   1.275       .  A
O2977      C2982   1.290       .  A
O2978     Ni2980   1.955       .  S
O2978      C2981   1.289       .  A
Ni2979    Ni2980   2.387   1_455  S
C2981      C3010   1.511       .  S
C2982      C3061   1.528       .  S
C2983      C3042   1.457       .  S
C2984      C3026   1.440       .  S
C2985      C2986   1.501       .  S
C2985      C2991   1.554       .  S
C2985      C2989   1.528       .  S
C2985      C3045   1.511       .  S
C2986      H2993   1.083       .  S
C2987      C2988   1.580       .  S
C2988      C2992   1.559       .  S
C2988      C2990   1.582       .  S
C2988      H2994   1.110       .  S
C2989      H2995   1.081       .  S
C2992      C3058   1.519       .  S
C2997      C2998   1.535       .  S
C2997      C3003   1.533       .  S
C2997      C3001   1.508       .  S
C2997      C3029   1.509       .  S
C2998      H3005   1.079       .  S
C2999      C3000   1.557   1_554  S
C3000      C3004   1.573       .  S
C3000      C3002   1.583       .  S
C3000      H3006   1.110       .  S
C3001      H3007   1.074       .  S
C3004      C3013   1.533       .  S
C3009      C3010   1.400       .  A
C3009      C3014   1.415       .  A
C3009      H3016   1.082       .  S
C3010      C3011   1.428       .  A
C3011      C3018   1.517       .  S
C3011      C3012   1.422       .  A
C3012      C3013   1.408       .  A
C3012      H3017   1.078       .  S
C3013      C3014   1.437       .  A
C3014      C3015   1.523       .  S
C3015      F3019   1.384       .  S
C3015      F3021   1.380       .  S
C3018      F3022   1.377       .  S
C3018      F3023   1.384       .  S
C3018      F3024   1.379       .  S
C3025      C3026   1.395       .  A
C3025      C3030   1.390       .  A
C3025      H3032   1.083       .  S
C3026      C3027   1.405       .  A
C3027      C3034   1.523       .  S
C3027      C3028   1.386       .  A
C3028      C3029   1.408       .  A
C3028      H3033   1.071       .  S
C3029      C3030   1.433       .  A
C3030      C3031   1.532       .  S
C3031      F3035   1.383       .  S
C3031      F3037   1.375       .  S
C3034      F3038   1.384       .  S
C3034      F3039   1.379       .  S
C3034      F3040   1.384       .  S
C3041      C3042   1.398       .  A
C3041      C3046   1.390       .  A
C3041      H3048   1.086       .  S
C3042      C3043   1.412       .  A
C3043      C3050   1.519       .  S
C3043      C3044   1.398       .  A
C3044      C3045   1.409       .  A
C3044      H3049   1.082       .  S
C3045      C3046   1.422       .  A
C3046      C3047   1.522       .  S
C3047      F3051   1.384       .  S
C3047      F3052   1.384       .  S
C3047      F3053   1.380       .  S
C3050      F3054   1.382       .  S
C3050      F3055   1.383       .  S
C3050      F3056   1.385       .  S
C3057      C3058   1.400       .  A
C3057      C3062   1.412       .  A
C3057      H3064   1.075       .  S
C3058      C3059   1.427       .  A
C3059      C3066   1.516       .  S
C3059      C3060   1.427       .  A
C3060      C3061   1.413       .  A
C3060      H3065   1.084       .  S
C3061      C3062   1.426       .  A
C3062      C3063   1.512       .  S
C3063      F3067   1.385       .  S
C3063      F3068   1.378       .  S
C3063      F3069   1.371       .  S
C3066      F3070   1.380       .  S
C3066      F3071   1.382       .  S
C3066      F3072   1.384       .  S
C3073      C3074   1.414       .  A
C3073      C3078   1.426       .  A
C3073      H3080   1.077       .  S
C3074      C3075   1.439       .  A
C3075      C3082   1.521       .  S
C3075      C3076   1.418       .  A
C3076      C3077   1.401       .  A
C3076      H3081   1.082       .  S
C3077      C3078   1.424       .  A
C3078      C3079   1.519       .  S
C3079      F3083   1.384       .  S
C3079      F3084   1.378       .  S
C3079      F3085   1.382       .  S
C3082      F3086   1.383       .  S
C3082      F3088   1.384       .  S
C3089      C3090   1.399       .  A
C3089      C3094   1.405       .  A
C3089      H3096   1.084       .  S
C3090      C3091   1.404       .  A
C3091      C3098   1.518       .  S
C3091      C3092   1.379       .  A
C3092      C3093   1.409       .  A
C3092      H3097   1.082       .  S
C3093      C3094   1.427       .  A
C3094      C3095   1.521       .  S
C3095      F3099   1.386       .  S
C3095      F3100   1.383       .  S
C3095      F3101   1.380       .  S
C3098      F3102   1.380       .  S
C3098      F3103   1.381       .  S
C3098      F3104   1.385       .  S
C3105      C3106   1.409       .  A
C3105      C3110   1.420       .  A
C3105      H3112   1.083       .  S
C3106      C3107   1.422       .  A
C3107      C3114   1.516       .  S
C3107      C3108   1.426       .  A
C3108      C3109   1.413       .  A
C3108      H3113   1.074       .  S
C3109      C3110   1.432       .  A
C3110      C3111   1.515       .  S
C3111      F3115   1.382       .  S
C3111      F3116   1.371       .  S
C3114      F3118   1.384       .  S
C3114      F3119   1.382       .  S
C3114      F3120   1.379       .  S
C3121      C3122   1.402       .  A
C3121      C3126   1.400       .  A
C3121      H3128   1.085       .  S
C3122      C3123   1.414       .  A
C3123      C3130   1.518       .  S
C3123      C3124   1.397       .  A
C3124      C3125   1.408       .  A
C3124      H3129   1.082       .  S
C3125      C3126   1.421       .  A
C3126      C3127   1.519       .  S
C3127      F3131   1.385       .  S
C3127      F3132   1.383       .  S
C3127      F3133   1.382       .  S
C3130      F3134   1.380       .  S
C3130      F3135   1.383       .  S
C3130      F3136   1.385       .  S
C3137      C3138   1.398       .  A
C3137      C3142   1.418       .  A
C3137      H3144   1.078       .  S
C3138      C3139   1.408       .  A
C3139      C3146   1.517       .  S
C3139      C3140   1.413       .  A
C3140      C3141   1.423       .  A
C3140      H3145   1.075       .  S
C3141      C3142   1.447       .  A
C3142      C3143   1.528       .  S
C3143      F3147   1.386       .  S
C3143      F3148   1.370       .  S
C3143      F3149   1.379       .  S
C3146      F3150   1.382       .  S
C3146      F3151   1.382       .  S
C3146      F3152   1.384       .  S
C3153      C3154   1.402       .  A
C3153      C3158   1.399       .  A
C3153      H3160   1.085       .  S
C3154      C3155   1.417       .  A
C3155      C3162   1.518       .  S
C3155      C3156   1.399       .  A
C3156      C3157   1.409       .  A
C3156      H3161   1.081       .  S
C3157      C3158   1.424       .  A
C3158      C3159   1.518       .  S
C3159      F3163   1.384       .  S
C3159      F3164   1.376       .  S
C3159      F3165   1.383       .  S
C3162      F3166   1.379       .  S
C3162      F3167   1.383       .  S
C3162      F3168   1.385       .  S
C3169      C3170   1.404       .  A
C3169      C3174   1.412       .  A
C3169      H3176   1.082       .  S
C3170      C3171   1.428       .  A
C3171      C3178   1.518       .  S
C3171      C3172   1.427       .  A
C3172      C3173   1.410       .  A
C3172      H3177   1.080       .  S
C3173      C3174   1.429       .  A
C3174      C3175   1.511       .  S
C3175      F3179   1.385       .  S
C3175      F3180   1.370       .  S
C3175      F3181   1.379       .  S
C3178      F3182   1.383       .  S
C3178      F3183   1.383       .  S
C3178      F3184   1.385       .  S
C3185      C3186   1.393       .  A
C3185      C3190   1.397       .  A
C3185      H3192   1.084       .  S
C3186      C3187   1.409       .  A
C3187      C3194   1.517       .  S
C3187      C3188   1.394       .  A
C3188      C3189   1.408       .  A
C3188      H3193   1.079       .  S
C3189      C3190   1.435       .  A
C3190      C3191   1.527       .  S
C3191      F3195   1.383       .  S
C3191      F3196   1.383       .  S
C3191      F3197   1.375       .  S
C3194      F3198   1.381       .  S
C3194      F3199   1.380       .  S
C3194      F3200   1.383       .  S
C3201      C3202   1.407       .  A
C3201      C3206   1.410       .  A
C3201      H3208   1.084       .  S
C3202      C3203   1.430       .  A
C3203      C3210   1.517       .  S
C3203      C3204   1.428       .  A
C3204      C3205   1.409       .  A
C3204      H3209   1.079       .  S
C3205      C3206   1.429       .  A
C3206      C3207   1.514       .  S
C3207      F3211   1.382       .  S
C3207      F3212   1.369       .  S
C3207      F3213   1.383       .  S
C3210      F3214   1.381       .  S
C3210      F3215   1.383       .  S
C3210      F3216   1.384       .  S
C3217      C3218   1.414       .  A
C3217      C3222   1.402       .  A
C3217      H3224   1.075       .  S
C3218      C3219   1.441       .  A
C3219      C3226   1.526       .  S
C3219      C3220   1.398       .  A
C3220      C3221   1.390       .  A
C3220      H3225   1.085       .  S
C3221      C3222   1.406       .  A
C3222      C3223   1.518       .  S
C3223      F3227   1.384       .  S
C3223      F3228   1.381       .  S
C3223      F3229   1.383       .  S
C3226      F3230   1.378       .  S
C3226      F3231   1.370       .  S
C3226      F3232   1.386       .  S
C3233      C3234   1.411       .  A
C3233      C3238   1.404       .  A
C3233      H3240   1.080       .  S
C3234      C3235   1.425       .  A
C3235      C3242   1.521       .  S
C3235      C3236   1.395       .  A
C3236      C3237   1.399       .  A
C3236      H3241   1.085       .  S
C3237      C3238   1.412       .  A
C3238      C3239   1.517       .  S
C3239      F3243   1.385       .  S
C3239      F3244   1.383       .  S
C3239      F3245   1.383       .  S
C3242      F3246   1.383       .  S
C3242      F3247   1.377       .  S
C3242      F3248   1.384       .  S
C3249      C3250   1.394       .  A
C3249      C3254   1.412       .  A
C3249      H3256   1.085       .  S
C3250      C3251   1.420       .  A
C3251      C3258   1.514       .  S
C3251      C3252   1.429       .  A
C3252      C3253   1.414       .  A
C3252      H3257   1.076       .  S
C3253      C3254   1.434       .  A
C3254      C3255   1.506       .  S
C3255      F3259   1.386       .  S
C3255      F3260   1.365       .  S
C3255      F3261   1.383       .  S
C3258      F3262   1.382       .  S
C3258      F3263   1.383       .  S
C3258      F3264   1.385       .  S
