geometry optimzed in LAMMPS
_audit_creation_date              2020-11-30 
_audit_creation_method            'lammps2cif' 
_symmetry_space_group_name_H-M    'P1' 
_symmetry_Int_Tables_number       1 
_symmetry_cell_setting            triclinic 
loop_ 
_symmetry_equiv_pos_as_xyz 
  x,y,z 
_cell_length_a                    41.10784316354216 
_cell_length_b                    40.95348564885774 
_cell_length_c                    41.13009792534996 
_cell_angle_alpha                 90.13812578231662 
_cell_angle_beta                  89.9141734828425 
_cell_angle_gamma                 90.04137139689712 
loop_ 
_atom_site_label 
_atom_site_type_symbol 
_atom_site_fract_x 
_atom_site_fract_y 
_atom_site_fract_z 
_atom_site_charge 
O1          O  0.07908969  0.20102278  0.24044770    -0.72660
O2          O  0.07534340  0.29897759  0.26227552    -0.73640
O3          O  0.07616585  0.23931630  0.30044055    -0.62260
O4          O  0.07684823  0.26092984  0.20195690    -0.70670
O5          O  0.02416363  0.26602303  0.20304014    -0.70220
O6          O  0.02363042  0.23148157  0.29891623    -0.61470
O7          O  0.02270689  0.29591330  0.26856310    -0.73980
O8          O  0.02618974  0.20179393  0.23462279    -0.72760
Cu9        Cu  0.07877019  0.25014314  0.25131705     1.04560
Cu10       Cu  0.02356189  0.24876885  0.25126003     1.04330
C11         C  0.05266876  0.18610689  0.23309644     0.93540
C12         C  0.04839207  0.31263786  0.27037569     0.92680
C13         C  0.04975599  0.23099746  0.31522206     0.84830
C14         C  0.05031987  0.26794367  0.18680050     0.91100
O15         O  0.20046538  0.42325676  0.24009985    -0.72660
O16         O  0.29893233  0.41964595  0.25595495    -0.73640
O17         O  0.24156902  0.42208531  0.29818546    -0.62260
O18         O  0.25741828  0.42080650  0.19854308    -0.70670
O19         O  0.26487820  0.47381368  0.19911465    -0.70220
O20         O  0.23627106  0.47509081  0.29573185    -0.61470
O21         O  0.29887796  0.47281578  0.26145953    -0.73980
O22         O  0.20243237  0.47600590  0.23202197    -0.72760
Cu23       Cu  0.24952210  0.41962662  0.24819608     1.04560
Cu24       Cu  0.25070092  0.47561997  0.24710872     1.04330
C25         C  0.18598306  0.44978209  0.23178541     0.93540
C26         C  0.31445751  0.44606841  0.26244027     0.92680
C27         C  0.23521540  0.44921127  0.31271552     0.84830
C28         C  0.26462444  0.44720252  0.18324709     0.91100
O29         O  0.42325059  0.23930241  0.19986891    -0.72660
O30         O  0.42291446  0.26069390  0.29750002    -0.73640
O31         O  0.42491711  0.29940931  0.23836241    -0.62260
O32         O  0.42208045  0.20018078  0.25834783    -0.70670
O33         O  0.47484855  0.20163122  0.26433701    -0.70220
O34         O  0.47739288  0.29697488  0.23117844    -0.61470
O35         O  0.47561538  0.26654953  0.29610167    -0.73980
O36         O  0.47590109  0.23169180  0.20119279    -0.72760
Cu37       Cu  0.42137568  0.24996451  0.24850365     1.04560
Cu38       Cu  0.47655872  0.24921734  0.24822982     1.04330
C39         C  0.44953908  0.23047506  0.18540659     0.93540
C40         C  0.44937441  0.26866458  0.31214462     0.92680
C41         C  0.45169414  0.31381646  0.23050950     0.84590
C42         C  0.44875485  0.18517302  0.26491565     0.91100
O43         O  0.29766247  0.26320088  0.07628066    -0.72660
O44         O  0.19920505  0.24096586  0.07862197    -0.73640
O45         O  0.25905819  0.20305680  0.07649842    -0.62260
O46         O  0.23789332  0.30091777  0.07765228    -0.70670
O47         O  0.23074642  0.30033925  0.02501884    -0.70220
O48         O  0.26484234  0.20500152  0.02388594    -0.61470
O49         O  0.20083779  0.23609241  0.02572797    -0.73980
O50         O  0.29584560  0.27020759  0.02374345    -0.72760
Cu51       Cu  0.24851553  0.25207143  0.07915677     1.04560
Cu52       Cu  0.24805507  0.25297327  0.02394199     1.04330
C53         C  0.31218915  0.27146629  0.04977225     0.93540
C54         C  0.18465895  0.23391836  0.05188912     0.92680
C55         C  0.26640776  0.18848210  0.04974021     0.84830
C56         C  0.22987458  0.31604607  0.05150085     0.91100
C57         C  0.15293741  0.21532943  0.05201895     0.03420
C58         C  0.15505369  0.18649500  0.06930664    -0.12730
C59         C  0.13002535  0.16418180  0.06847538     0.00920
C60         C  0.10362664  0.16777878  0.04815602    -0.11260
C61         C  0.09758393  0.19718926  0.03264459     0.03410
C62         C  0.12266804  0.22213947  0.03518715    -0.10680
H63         H  0.17590370  0.18174454  0.08478812     0.09000
H64         H  0.08516277  0.14882695  0.04885284     0.06530
H65         H  0.11834887  0.24637610  0.52625679     0.06380
C66         C  0.03416704  0.19792222  0.40537908     0.03420
C67         C  0.02723188  0.21503452  0.37526315    -0.12730
C68         C  0.05151328  0.21667086  0.34942660     0.00920
C69         C  0.08004551  0.19951378  0.35434180    -0.11260
C70         C  0.08345299  0.17892002  0.38052176     0.03410
C71         C  0.06214027  0.17914517  0.40638976    -0.10680
H72         H  0.50318394  0.22452354  0.37169145     0.09000
H73         H  0.09836230  0.19817631  0.33532880     0.06530
H74         H  0.06701206  0.16345459  0.42706847     0.06380
C75         C  0.46485836  0.19517797  0.09735183     0.03420
C76         C  0.47121231  0.21357261  0.12656527    -0.12730
C77         C  0.44755942  0.21420501  0.15259704     0.00920
C78         C  0.42029503  0.19461730  0.14932671    -0.11260
C79         C  0.41673049  0.17442878  0.12279170     0.03410
C80         C  0.43775600  0.17519410  0.09674258    -0.10680
H81         H  0.99442621  0.22515217  0.12935854     0.09000
H82         H  0.40265565  0.19268164  0.16891943     0.06530
H83         H  0.43288302  0.15967414  0.07584922     0.06380
O84         O  0.04701758  0.22539281  0.01780585    -0.72660
O85         O  0.45039542  0.22320263  0.48750567    -0.73640
O86         O  0.48361319  0.22333263  0.04983310    -0.62260
O87         O  0.01380941  0.22427670  0.45408360    -0.70670
O88         O  0.00946192  0.17104787  0.45188894    -0.70220
O89         O  0.48921995  0.17004704  0.05023607    -0.61470
O90         O  0.44990195  0.16995658  0.49182752    -0.73980
O91         O  0.04830366  0.17238070  0.01118933    -0.72760
Cu92       Cu  0.49866292  0.22518465  0.50229811     1.04560
Cu93       Cu  0.49928027  0.16902787  0.50127695     1.04330
C94         C  0.06318098  0.19900668  0.01883617     0.93540
C95         C  0.43450228  0.19662533  0.48594939     0.92680
C96         C  0.48211809  0.19659012  0.06528287     0.84830
C97         C  0.01610017  0.19808766  0.43755808     0.91100
C98         C  0.40236712  0.30435698  0.03384410     0.03420
C99         C  0.37204332  0.28742298  0.02707180    -0.12730
C100        C  0.34602574  0.28669554  0.05117343     0.00920
C101        C  0.35053719  0.30524680  0.07899313    -0.11260
C102        C  0.37768783  0.32460993  0.08271478     0.03410
C103        C  0.40368148  0.32334250  0.06162486    -0.10680
H104        H  0.36832816  0.27732730  0.50324199     0.09000
H105        H  0.33124493  0.30749289  0.09692146     0.06530
H106        H  0.42496629  0.33822883  0.06672646     0.06380
C107        C  0.46453295  0.30329441  0.40173978     0.03420
C108        C  0.47118548  0.28523482  0.37202458    -0.12730
C109        C  0.44776829  0.28485781  0.34551133     0.00920
C110        C  0.42059552  0.30453582  0.34899330    -0.11260
C111        C  0.41679153  0.32442123  0.37578278     0.03410
C112        C  0.43744016  0.32324173  0.40210561    -0.10680
H113        H  0.99445011  0.27381724  0.36917540     0.09000
H114        H  0.40306793  0.30672984  0.32938960     0.06530
H115        H  0.43230923  0.33857965  0.42307844     0.06380
C116        C  0.03448877  0.30087422  0.09573207     0.03420
C117        C  0.02745701  0.28386249  0.12618201    -0.12730
C118        C  0.05179868  0.28211195  0.15214425     0.00920
C119        C  0.08049252  0.29893656  0.14677432    -0.11260
C120        C  0.08389936  0.31963618  0.12062878     0.03410
C121        C  0.06259215  0.31949383  0.09478300    -0.10680
H122        H  0.50341229  0.27461324  0.13005028     0.09000
H123        H  0.09902074  0.30012204  0.16552685     0.06530
H124        H  0.06756141  0.33523806  0.07415138     0.06380
O125        O  0.45010778  0.33004093  0.01016296    -0.72660
O126        O  0.04805329  0.32694433  0.48774190    -0.73640
O127        O  0.48809703  0.32894382  0.44968483    -0.62260
O128        O  0.01049837  0.32825155  0.04861825    -0.70670
O129        O  0.01361768  0.27500549  0.04657529    -0.70220
O130        O  0.48320029  0.27565987  0.45018288    -0.61470
O131        O  0.04650344  0.27378594  0.48231708    -0.73980
O132        O  0.45028660  0.27670497  0.01348984    -0.72760
Cu133      Cu  0.49926801  0.33037370  0.49903284     1.04560
Cu134      Cu  0.49834044  0.27421535  0.99815262     1.04330
C135        C  0.43473240  0.30338499  0.01617110     0.93540
C136        C  0.06263714  0.30013751  0.48024247     0.92680
C137        C  0.48146754  0.30226188  0.43444852     0.84830
C138        C  0.01651513  0.30111132  0.06317359     0.91100
C139        C  0.40128070  0.19528895  0.46993299     0.03420
C140        C  0.37202094  0.21442139  0.47543193    -0.12730
C141        C  0.34533642  0.21361806  0.45205298     0.00920
C142        C  0.34830292  0.19222929  0.42616687    -0.11260
C143        C  0.37482205  0.17206486  0.42349994     0.03410
C144        C  0.40087832  0.17357531  0.44436203    -0.10680
H145        H  0.36962848  0.22751915  0.99784516     0.09000
H146        H  0.32894077  0.18967853  0.40839243     0.06530
H147        H  0.42164801  0.15780279  0.43976951     0.06380
C148        C  0.09626214  0.30159767  0.46470816     0.03420
C149        C  0.12258579  0.27789296  0.46458417    -0.12730
C150        C  0.15234824  0.28427211  0.44665763     0.00920
C151        C  0.15329900  0.31162361  0.42710214    -0.11260
C152        C  0.12736735  0.33281467  0.42606696     0.03410
C153        C  0.10032886  0.32909487  0.44554673    -0.10680
H154        H  0.11961649  0.25476307  0.97638546     0.09000
H155        H  0.17439180  0.31648323  0.41190992     0.06530
H156        H  0.08090893  0.34689747  0.44322527     0.06380
O157        O  0.29852628  0.23828752  0.42546222    -0.72660
O158        O  0.20004267  0.25986499  0.42151691    -0.73640
O159        O  0.25966976  0.29827235  0.42429695    -0.62260
O160        O  0.23883413  0.20036343  0.42322364    -0.70670
O161        O  0.23044537  0.20117400  0.47574059    -0.70220
O162        O  0.26453953  0.29659327  0.47698611    -0.61470
O163        O  0.20027879  0.26533714  0.47439369    -0.73980
O164        O  0.29523671  0.23177635  0.47797959    -0.72760
Cu165      Cu  0.24936296  0.24919677  0.42172942     1.04560
Cu166      Cu  0.24756729  0.24869606  0.47692877     1.04330
C167        C  0.31224314  0.23020155  0.45240242     0.93540
C168        C  0.18472509  0.26692202  0.44786808     0.92680
C169        C  0.26662161  0.31297459  0.45107668     0.84830
C170        C  0.23017572  0.18536208  0.44926208     0.91100
C171        C  0.29999214  0.09842549  0.03284679     0.03420
C172        C  0.28229564  0.12846390  0.02633899    -0.12730
C173        C  0.28118533  0.15445015  0.05067200     0.00920
C174        C  0.29921995  0.14983706  0.07855989    -0.11260
C175        C  0.31926410  0.12333386  0.08159718     0.03410
C176        C  0.31904121  0.09758429  0.06022711    -0.10680
H177        H  0.27197185  0.13200066  0.50272125     0.09000
H178        H  0.30087701  0.16876746  0.09702808     0.06530
H179        H  0.33460726  0.07668826  0.06502423     0.06380
C180        C  0.28179469  0.34686274  0.45013228     0.03420
C181        C  0.30075487  0.35082019  0.42274273    -0.12730
C182        C  0.32114874  0.37709099  0.41977971     0.00920
C183        C  0.32052943  0.40327647  0.44063187    -0.11260
C184        C  0.30048729  0.40313412  0.46742235     0.03410
C185        C  0.28243531  0.37328569  0.47400576    -0.10680
H186        H  0.30260903  0.33163356  0.40454506     0.09000
H187        H  0.33627511  0.42403401  0.43574050     0.06530
H188        H  0.27157893  0.37017798  0.99745976     0.06380
C189        C  0.28030933  0.44532222  0.15015333     0.03420
C190        C  0.30568006  0.42346867  0.14950673    -0.12730
C191        C  0.32706779  0.42286034  0.12377757     0.00920
C192        C  0.32498642  0.44393245  0.09799346    -0.11260
C193        C  0.29903657  0.46519311  0.09539034     0.03410
C194        C  0.27525253  0.46512215  0.12154695    -0.10680
H195        H  0.30989383  0.40723264  0.16994569     0.09000
H196        H  0.34312490  0.44211142  0.07884091     0.06530
H197        H  0.25283233  0.97794503  0.11919986     0.06380
O198        O  0.27365799  0.04888777  0.01530019    -0.72660
O199        O  0.27370358  0.45301453  0.48375763    -0.73640
O200        O  0.27261175  0.48416612  0.04648576    -0.62260
O201        O  0.27402458  0.01810721  0.45214953    -0.70670
O202        O  0.32673067  0.01112628  0.45116972    -0.70220
O203        O  0.32531493  0.49068407  0.04912180    -0.61470
O204        O  0.32639273  0.45111220  0.49067596    -0.73980
O205        O  0.32646623  0.05076636  0.00960446    -0.72760
Cu206      Cu  0.27276489  0.00107409  0.99937740     1.04560
Cu207      Cu  0.32816732  0.00094000  0.50016804     1.04330
C208        C  0.29962716  0.06555610  0.01606371     0.93540
C209        C  0.29969029  0.43630706  0.48368276     0.92680
C210        C  0.29846419  0.48235803  0.06293853     0.84830
C211        C  0.30044507  0.01954961  0.43645025     0.91100
C212        C  0.21572282  0.35004067  0.05373170     0.03420
C213        C  0.21347680  0.37527209  0.02919185    -0.12730
C214        C  0.19657806  0.40538677  0.03617739     0.00920
C215        C  0.17808640  0.40689458  0.06425473    -0.11260
C216        C  0.17840181  0.38130712  0.08587184     0.03410
C217        C  0.19926775  0.35528829  0.08260329    -0.10680
H218        H  0.22222463  0.37113845  0.50493665     0.09000
H219        H  0.16236504  0.42767660  0.06898756     0.06530
H220        H  0.19841026  0.33648381  0.10116651     0.06380
C221        C  0.21603948  0.15137431  0.44678261     0.03420
C222        C  0.19996917  0.14606179  0.41768991    -0.12730
C223        C  0.17963422  0.11962093  0.41395526     0.00920
C224        C  0.17929309  0.09406177  0.43559500    -0.11260
C225        C  0.19696432  0.09595349  0.46409450     0.03410
C226        C  0.21362258  0.12613837  0.47127413    -0.10680
H227        H  0.19906782  0.16499003  0.39926413     0.09000
H228        H  0.16390290  0.07305392  0.43066654     0.06530
H229        H  0.22226379  0.13019779  0.99556721     0.06380
C230        C  0.21829657  0.44906650  0.34574010     0.03420
C231        C  0.19148053  0.42891674  0.34544684    -0.12730
C232        C  0.17045898  0.42822058  0.37141095     0.00920
C233        C  0.17275260  0.44912698  0.39735570    -0.11260
C234        C  0.20010401  0.46803990  0.40184798     0.03410
C235        C  0.22449362  0.46713946  0.37575911    -0.10680
H236        H  0.18685375  0.41288412  0.32486980     0.09000
H237        H  0.15425518  0.44733715  0.41616908     0.06530
H238        H  0.24812333  0.97756618  0.37920585     0.06380
O239        O  0.22605249  0.48389086  0.45304665    -0.72660
O240        O  0.22443324  0.01815354  0.04852757    -0.73640
O241        O  0.22378055  0.45347911  0.01703589    -0.62260
O242        O  0.22371035  0.04821464  0.48413129    -0.70670
O243        O  0.17079517  0.04988735  0.48955379    -0.70220
O244        O  0.17098659  0.45158035  0.01037016    -0.61470
O245        O  0.17180314  0.01128923  0.04950695    -0.73980
O246        O  0.17348197  0.49035756  0.45040512    -0.72760
Cu247      Cu  0.22523581  0.50096496  0.50072724     1.04560
Cu248      Cu  0.16984173  0.50077332  0.49992644     1.04330
C249        C  0.20046632  0.48284130  0.43607970     0.93540
C250        C  0.19821892  0.01902541  0.06467815     0.92680
C251        C  0.19752185  0.43720138  0.01816806     0.84830
C252        C  0.19747424  0.06433950  0.48232739     0.91100
C253        C  0.34726037  0.44425875  0.27877400     0.03420
C254        C  0.34720040  0.42279446  0.30447709    -0.12730
C255        C  0.37295087  0.42170678  0.32572551     0.00920
C256        C  0.39899782  0.44254395  0.32378186    -0.11260
C257        C  0.40233500  0.46339477  0.29766230     0.03410
C258        C  0.37649469  0.46322287  0.27349778    -0.10680
H259        H  0.32645403  0.40689438  0.30873632     0.09000
H260        H  0.41799682  0.44053335  0.34200885     0.06530
H261        H  0.37951274  0.97506066  0.25053990     0.06380
C262        C  0.46736223  0.09635773  0.29917916     0.03420
C263        C  0.44942064  0.10120610  0.32718365    -0.12730
C264        C  0.42906284  0.12750877  0.33022808     0.00920
C265        C  0.42888592  0.15301821  0.30873515    -0.11260
C266        C  0.44815955  0.15223351  0.28141976     0.03410
C267        C  0.46622513  0.12230726  0.27491171    -0.10680
H268        H  0.44796859  0.08249658  0.34580770     0.09000
H269        H  0.41307607  0.17375737  0.31353142     0.06530
H270        H  0.97704943  0.11893114  0.25140998     0.06380
C271        C  0.03013970  0.40058683  0.30574814     0.03420
C272        C  0.02496475  0.37144219  0.28664368    -0.12730
C273        C  0.04868950  0.34528363  0.28717821     0.00920
C274        C  0.07440917  0.34822704  0.30851071    -0.11260
C275        C  0.07643068  0.37452971  0.32905086     0.03410
C276        C  0.05532305  0.40046732  0.32771684    -0.10680
H277        H  0.50248437  0.36872355  0.27388593     0.09000
H278        H  0.09244465  0.32898325  0.31076575     0.06530
H279        H  0.05955730  0.42138344  0.34348073     0.06380
O280        O  0.45244828  0.48034884  0.27190987    -0.72660
O281        O  0.04736819  0.01258030  0.27599465    -0.73640
O282        O  0.01497684  0.44897904  0.27642752    -0.62260
O283        O  0.48388228  0.04532264  0.27258732    -0.70670
O284        O  0.48885943  0.04776637  0.32521637    -0.70220
O285        O  0.00701516  0.44933743  0.32909770    -0.61470
O286        O  0.04789661  0.00852346  0.32892343    -0.73980
O287        O  0.44874638  0.48858321  0.32434150    -0.72760
Cu288      Cu  0.49974949  0.49677435  0.27336892     1.04560
Cu289      Cu  0.49801573  0.49860835  0.32879446     1.04330
C290        C  0.43530664  0.47978717  0.29739248     0.93540
C291        C  0.06316009  0.01488672  0.30232624     0.92680
C292        C  0.01452793  0.43358755  0.30315477     0.84830
C293        C  0.48204842  0.06216875  0.29833636     0.91100
C294        C  0.28445269  0.05442987  0.34804506     0.03420
C295        C  0.27791235  0.03687864  0.37779576    -0.12730
C296        C  0.30227829  0.03525119  0.40322113     0.00920
C297        C  0.33018388  0.05369944  0.39902323    -0.11260
C298        C  0.33356735  0.07390768  0.37255102     0.03410
C299        C  0.31215143  0.07348833  0.34685121    -0.10680
H300        H  0.25400496  0.52714483  0.38163120     0.09000
H301        H  0.34832006  0.05525656  0.41813910     0.06530
H302        H  0.31702161  0.08883625  0.32588801     0.06380
C303        C  0.21456358  0.05175796  0.15539196     0.03420
C304        C  0.18629296  0.07006639  0.15684925    -0.12730
C305        C  0.16468762  0.06990875  0.13123496     0.00920
C306        C  0.16768981  0.04880349  0.10530125    -0.11260
C307        C  0.19666541  0.03275311  0.09938036     0.03410
C308        C  0.22151384  0.03525551  0.12472164    -0.10680
H309        H  0.18152154  0.08586231  0.17755180     0.09000
H310        H  0.14884868  0.04955676  0.08683944     0.06530
H311        H  0.24597509  0.52733571  0.12016859     0.06380
C312        C  0.09544864  0.03287578  0.30265158     0.03420
C313        C  0.12550770  0.02643861  0.28488772    -0.12730
C314        C  0.15094157  0.05129762  0.28286857     0.00920
C315        C  0.14503117  0.08035756  0.29910934    -0.11260
C316        C  0.11890671  0.08356908  0.31989040     0.03410
C317        C  0.09393037  0.06122210  0.32089018    -0.10680
H318        H  0.12924660  0.50256864  0.27470438     0.09000
H319        H  0.16339377  0.09941433  0.29983193     0.06530
H320        H  0.07334937  0.06584751  0.33684153     0.06380
O321        O  0.25964675  0.07967618  0.30105134    -0.72660
O322        O  0.23948627  0.07876631  0.20211927    -0.73640
O323        O  0.20033187  0.07677106  0.26161569    -0.62260
O324        O  0.29947668  0.08003466  0.24221322    -0.70670
O325        O  0.29910894  0.02686489  0.23764288    -0.70220
O326        O  0.20215285  0.02384429  0.26795636    -0.61470
O327        O  0.23547324  0.02557777  0.20404850    -0.73980
O328        O  0.26567097  0.02651870  0.30016920    -0.72760
Cu329      Cu  0.24967770  0.08064525  0.25174746     1.04560
Cu330      Cu  0.25066648  0.02459477  0.25243148     1.04330
C331        C  0.26689304  0.05314809  0.31597158     0.93540
C332        C  0.23294272  0.05172945  0.18757876     0.92680
C333        C  0.18557613  0.04996258  0.26898763     0.84830
C334        C  0.31508265  0.05339938  0.23629584     0.91100
C335        C  0.15185964  0.44786771  0.21775243     0.03420
C336        C  0.14572250  0.41817930  0.20262988    -0.12730
C337        C  0.11963575  0.41450128  0.18196529     0.00920
C338        C  0.09527979  0.43733883  0.17988000    -0.11260
C339        C  0.09755413  0.46641504  0.19675556     0.03410
C340        C  0.12730063  0.47306989  0.21443176    -0.10680
H341        H  0.16390912  0.39896810  0.20255392     0.09000
H342        H  0.07466073  0.43255838  0.16405474     0.06530
H343        H  0.13154858  0.99729497  0.22363209     0.06380
C344        C  0.45090135  0.34807380  0.21612921     0.03420
C345        C  0.42292139  0.35297114  0.19835665    -0.12730
C346        C  0.42012834  0.37929319  0.17805742     0.00920
C347        C  0.44137354  0.40514104  0.17854780    -0.11260
C348        C  0.46879279  0.40422089  0.19765492     0.03410
C349        C  0.47546441  0.37389688  0.21477495    -0.10680
H350        H  0.40432516  0.33416918  0.19681046     0.09000
H351        H  0.43655952  0.42604315  0.16304784     0.06530
H352        H  0.99946776  0.37006755  0.22419574     0.06380
C353        C  0.40439646  0.03580720  0.20132230     0.03420
C354        C  0.37824329  0.03607485  0.22559687    -0.12730
C355        C  0.34846665  0.05459043  0.22005715     0.00920
C356        C  0.34845075  0.07553999  0.19402609    -0.11260
C357        C  0.37418563  0.07651790  0.17264363     0.03410
C358        C  0.40058454  0.05616337  0.17487163    -0.10680
H359        H  0.38159490  0.52481828  0.24880977     0.09000
H360        H  0.32766644  0.09131527  0.18963770     0.06530
H361        H  0.41948421  0.05824780  0.15650929     0.06380
C362        C  0.05356150  0.15443040  0.21499571     0.03420
C363        C  0.07119802  0.15640004  0.18646736    -0.12730
C364        C  0.06989958  0.13139163  0.16417981     0.00920
C365        C  0.04907154  0.10530088  0.16759444    -0.11260
C366        C  0.03353512  0.09955829  0.19692219     0.03410
C367        C  0.03636127  0.12447210  0.22179084    -0.10680
H368        H  0.08699120  0.17715487  0.18180528     0.09000
H369        H  0.04946457  0.08673344  0.14870489     0.06530
H370        H  0.52739293  0.12033201  0.24604213     0.06380
O371        O  0.05092244  0.49129860  0.17049184    -0.72660
O372        O  0.45183623  0.01180151  0.17420581    -0.73640
O373        O  0.01131383  0.05041057  0.17296808    -0.62260
O374        O  0.49186000  0.45185448  0.17125350    -0.70670
O375        O  0.48762996  0.45353768  0.22415923    -0.70220
O376        O  0.01941902  0.04957912  0.22551919    -0.61470
O377        O  0.45499485  0.01805799  0.22670555    -0.73980
O378        O  0.05010305  0.48625750  0.22344316    -0.72760
Cu379      Cu  0.50141981  0.00141607  0.17032997     1.04560
Cu380      Cu  0.50304948  0.50183068  0.22581567     1.04330
C381        C  0.06586813  0.48455846  0.19707940     0.93540
C382        C  0.43793929  0.01967403  0.20125870     0.92680
C383        C  0.01966693  0.06544285  0.19915217     0.84830
C384        C  0.48592222  0.43699099  0.19806859     0.91100
C385        C  0.37331250  0.10006290  0.14767247     0.03420
C386        C  0.34734679  0.09973346  0.12667337    -0.12730
C387        C  0.34444732  0.12471396  0.10470083     0.00920
C388        C  0.36716965  0.14965878  0.10284218    -0.11260
C389        C  0.39293214  0.14936665  0.12419673     0.03410
C390        C  0.39642108  0.12463120  0.14682551    -0.10680
H391        H  0.32932805  0.08033808  0.12764348     0.09000
H392        H  0.36503090  0.16881199  0.08476970     0.06530
H393        H  0.41654098  0.12479729  0.16389430     0.06380
C394        C  0.39727939  0.37747278  0.15261498     0.03420
C395        C  0.39892749  0.35170343  0.13071070    -0.12730
C396        C  0.37649616  0.35039680  0.10588797     0.00920
C397        C  0.35319750  0.37457546  0.10235881    -0.11260
C398        C  0.35259905  0.39993814  0.12457852     0.03410
C399        C  0.37457857  0.40182282  0.14966294    -0.10680
H400        H  0.41741005  0.33292997  0.13298089     0.09000
H401        H  0.33543409  0.37340667  0.08288251     0.06530
H402        H  0.37355004  0.42169921  0.16717183     0.06380
C403        C  0.15177013  0.37737688  0.10750881     0.03420
C404        C  0.13028816  0.35169011  0.10226361    -0.12730
C405        C  0.10559475  0.34657555  0.12439163     0.00920
C406        C  0.10144626  0.36723368  0.15096903    -0.11260
C407        C  0.12327047  0.39238158  0.15555461     0.03410
C408        C  0.14837478  0.39798924  0.13370644    -0.10680
H409        H  0.13324738  0.33542262  0.08159426     0.09000
H410        H  0.08163704  0.36359395  0.16805776     0.06530
H411        H  0.16528859  0.41806129  0.13722854     0.06380
C412        C  0.14759363  0.40267831  0.37332549     0.03420
C413        C  0.12427702  0.40025616  0.34963832    -0.12730
C414        C  0.10176864  0.37557624  0.35196456     0.00920
C415        C  0.10234883  0.35326080  0.37708126    -0.11260
C416        C  0.12620681  0.35626109  0.40063450     0.03410
C417        C  0.14922133  0.38072442  0.39893102    -0.10680
H418        H  0.12327852  0.41779038  0.32988052     0.09000
H419        H  0.08426926  0.33396859  0.37841202     0.06530
H420        H  0.16806357  0.38273754  0.41728655     0.06380
C421        C  0.15285942  0.12312292  0.39242855     0.03420
C422        C  0.13104674  0.14846310  0.39782452    -0.12730
C423        C  0.10520612  0.15212002  0.37685796     0.00920
C424        C  0.10031012  0.13053118  0.35119058    -0.11260
C425        C  0.12241253  0.10567417  0.34640474     0.03410
C426        C  0.14858039  0.10137527  0.36724895    -0.10680
H427        H  0.13443143  0.16543572  0.41785002     0.09000
H428        H  0.07988807  0.13344904  0.33475464     0.06530
H429        H  0.16568802  0.08149990  0.36366223     0.06380
C430        C  0.40397421  0.12583189  0.35350628     0.03420
C431        C  0.40108902  0.15033796  0.37616694    -0.12730
C432        C  0.37584691  0.14878856  0.39812537     0.00920
C433        C  0.35347942  0.12354460  0.39747779    -0.11260
C434        C  0.35696875  0.09933418  0.37413157     0.03410
C435        C  0.38192934  0.10028273  0.35184856    -0.10680
H436        H  0.41863175  0.17016695  0.37703246     0.09000
H437        H  0.33384888  0.12255095  0.41513366     0.06530
H438        H  0.38406730  0.08149245  0.33330333     0.06380
C439        C  0.34596301  0.37552256  0.39624117     0.03420
C440        C  0.36844039  0.35035623  0.39756935    -0.12730
C441        C  0.39288878  0.34948732  0.37461971     0.00920
C442        C  0.39526893  0.37341330  0.35096521    -0.11260
C443        C  0.37236452  0.39815800  0.35064790     0.03410
C444        C  0.34767471  0.39956326  0.37312839    -0.10680
H445        H  0.36698328  0.33179122  0.41631352     0.09000
H446        H  0.41456248  0.37270010  0.33293016     0.06530
H447        H  0.32976932  0.41905101  0.37246534     0.06380
C448        C  0.14345580  0.09705664  0.12711556     0.03420
C449        C  0.14822364  0.11763538  0.10062539    -0.12730
C450        C  0.12637137  0.14263838  0.09541987     0.00920
C451        C  0.10064118  0.14806896  0.11667821    -0.11260
C452        C  0.09659429  0.12734917  0.14264604     0.03410
C453        C  0.11813467  0.10195698  0.14847346    -0.10680
H454        H  0.16835675  0.11385183  0.08394319     0.09000
H455        H  0.08370246  0.16801148  0.11283648     0.06530
H456        H  0.11476612  0.08572555  0.16904364     0.06380
O457        O  0.07909503  0.20103187  0.74052528    -0.72660
O458        O  0.07534941  0.29899177  0.76234633    -0.73640
O459        O  0.07615668  0.23933697  0.80050287    -0.62260
O460        O  0.07687448  0.26093866  0.70202247    -0.70670
O461        O  0.02418723  0.26601515  0.70307063    -0.70220
O462        O  0.02362061  0.23150365  0.79896123    -0.61470
O463        O  0.02270514  0.29592758  0.76858805    -0.73980
O464        O  0.02619816  0.20179937  0.73467953    -0.72760
Cu465      Cu  0.07877663  0.25015674  0.75138477     1.04560
Cu466      Cu  0.02356498  0.24877889  0.75129893     1.04330
C467        C  0.05267651  0.18611055  0.73317377     0.93540
C468        C  0.04839193  0.31264813  0.77043185     0.92680
C469        C  0.04974227  0.23101899  0.81527466     0.84830
C470        C  0.05035377  0.26794052  0.68684684     0.91100
O471        O  0.20046894  0.42325288  0.74009688    -0.72660
O472        O  0.29893137  0.41964506  0.75597106    -0.73640
O473        O  0.24155398  0.42207749  0.79819064    -0.62260
O474        O  0.25743267  0.42080751  0.69855199    -0.70670
O475        O  0.26488756  0.47381546  0.69912818    -0.70220
O476        O  0.23626507  0.47508466  0.79574059    -0.61470
O477        O  0.29887955  0.47281517  0.76147566    -0.73980
O478        O  0.20243611  0.47600324  0.73202753    -0.72760
Cu479      Cu  0.24952301  0.41962375  0.74820288     1.04560
Cu480      Cu  0.25070305  0.47561755  0.74712012     1.04330
C481        C  0.18598697  0.44977933  0.73178602     0.93540
C482        C  0.31445804  0.44606689  0.76245597     0.92680
C483        C  0.23519867  0.44920298  0.81272074     0.84830
C484        C  0.26464013  0.44720505  0.68325925     0.91100
O485        O  0.42325610  0.23930058  0.69987157    -0.72660
O486        O  0.42290872  0.26069769  0.79750315    -0.73640
O487        O  0.42491324  0.29941036  0.73836087    -0.62260
O488        O  0.42208225  0.20018155  0.75835030    -0.70670
O489        O  0.47484898  0.20163348  0.76435080    -0.70220
O490        O  0.47739009  0.29697479  0.73118670    -0.61470
O491        O  0.47560945  0.26655637  0.79611405    -0.73980
O492        O  0.47590575  0.23168947  0.70120634    -0.72760
Cu493      Cu  0.42137497  0.24996546  0.74850571     1.04560
Cu494      Cu  0.47655715  0.24921938  0.74824235     1.04330
C495        C  0.44954711  0.23047165  0.68541482     0.93540
C496        C  0.44936571  0.26866999  0.81215305     0.92680
C497        C  0.45169157  0.31381610  0.73051032     0.84590
C498        C  0.44875595  0.18517381  0.76492151     0.91100
O499        O  0.29765327  0.26318815  0.57627226    -0.72660
O500        O  0.19919270  0.24097487  0.57859842    -0.73640
O501        O  0.25904004  0.20305246  0.57648720    -0.62260
O502        O  0.23789603  0.30091426  0.57763056    -0.70670
O503        O  0.23073359  0.30033840  0.52499856    -0.70220
O504        O  0.26482653  0.20499856  0.52387513    -0.61470
O505        O  0.20081169  0.23609629  0.52570293    -0.73980
O506        O  0.29582898  0.27020449  0.52373821    -0.72760
Cu507      Cu  0.24850476  0.25206822  0.57913995     1.04560
Cu508      Cu  0.24803640  0.25297123  0.52392591     1.04330
C509        C  0.31217653  0.27145811  0.54976409     0.93540
C510        C  0.18463823  0.23392770  0.55186944     0.92680
C511        C  0.26639409  0.18847918  0.54972979     0.84830
C512        C  0.22987543  0.31604528  0.55148144     0.91100
C513        C  0.15290866  0.21534904  0.55201800     0.03420
C514        C  0.15501081  0.18654165  0.56935080    -0.12730
C515        C  0.12996993  0.16424202  0.56855903     0.00920
C516        C  0.10356465  0.16782152  0.54824576    -0.11260
C517        C  0.09754957  0.19719840  0.53266486     0.03410
C518        C  0.12264127  0.22214414  0.53517605    -0.10680
H519        H  0.17586347  0.18179982  0.58483144     0.09000
H520        H  0.08508787  0.14888324  0.54897496     0.06530
H521        H  0.11837504  0.24638091  0.02628851     0.06380
C522        C  0.03415078  0.19793335  0.90542210     0.03420
C523        C  0.02722195  0.21505952  0.87531564    -0.12730
C524        C  0.05149428  0.21668115  0.84947240     0.00920
C525        C  0.08001239  0.19949566  0.85437201    -0.11260
C526        C  0.08341270  0.17889557  0.88054731     0.03410
C527        C  0.06210864  0.17913285  0.90642140    -0.10680
H528        H  0.50317019  0.22454021  0.87167506     0.09000
H529        H  0.09832294  0.19814929  0.83535375     0.06530
H530        H  0.06697558  0.16343687  0.92709698     0.06380
C531        C  0.46489317  0.19516394  0.59736788     0.03420
C532        C  0.47123934  0.21355933  0.62658302    -0.12730
C533        C  0.44757490  0.21420170  0.65260418     0.00920
C534        C  0.42030464  0.19462406  0.64932198    -0.11260
C535        C  0.41674648  0.17443230  0.62278830     0.03410
C536        C  0.43778506  0.17518722  0.59674889    -0.10680
H537        H  0.99441322  0.22516916  0.62930057     0.09000
H538        H  0.40265558  0.19269617  0.66890672     0.06530
H539        H  0.43291738  0.15966595  0.57585537     0.06380
O540        O  0.04699438  0.22537940  0.51777217    -0.72660
O541        O  0.45035308  0.22322736  0.98748340    -0.73640
O542        O  0.48365677  0.22331690  0.54985246    -0.62260
O543        O  0.01381229  0.22429514  0.95412800    -0.70670
O544        O  0.00944953  0.17106627  0.95193152    -0.70220
O545        O  0.48927154  0.17003273  0.55025850    -0.61470
O546        O  0.44984488  0.16998170  0.99180762    -0.73980
O547        O  0.04829583  0.17236669  0.51117110    -0.72760
Cu548      Cu  0.49862140  0.22519395  0.00228042     1.04560
Cu549      Cu  0.49922502  0.16903826  0.00125587     1.04330
C550        C  0.06316169  0.19899826  0.51882114     0.93540
C551        C  0.43445204  0.19665447  0.98592852     0.92680
C552        C  0.48216269  0.19657510  0.56530331     0.84830
C553        C  0.01609236  0.19810534  0.93760232     0.91100
C554        C  0.40235529  0.30434599  0.53382926     0.03420
C555        C  0.37202780  0.28741698  0.52705699    -0.12730
C556        C  0.34601301  0.28668787  0.55116195     0.00920
C557        C  0.35052599  0.30524013  0.57898051    -0.11260
C558        C  0.37767715  0.32460276  0.58269947     0.03410
C559        C  0.40367117  0.32333116  0.56161008    -0.10680
H560        H  0.36835178  0.27732575  0.00325919     0.09000
H561        H  0.33123479  0.30748689  0.59690991     0.06530
H562        H  0.42495751  0.33821527  0.56671176     0.06380
C563        C  0.46451615  0.30330100  0.90175200     0.03420
C564        C  0.47117563  0.28524786  0.87203348    -0.12730
C565        C  0.44775269  0.28485632  0.84552446     0.00920
C566        C  0.42056463  0.30451167  0.84901648    -0.11260
C567        C  0.41675184  0.32439306  0.87580816     0.03410
C568        C  0.43740714  0.32322726  0.90212674    -0.10680
H569        H  0.99442397  0.27384380  0.86914548     0.09000
H570        H  0.40303308  0.30669817  0.82941540     0.06530
H571        H  0.43227128  0.33856209  0.92310065     0.06380
C572        C  0.03457877  0.30082428  0.59574654     0.03420
C573        C  0.02752310  0.28383973  0.62620815    -0.12730
C574        C  0.05185307  0.28209246  0.65218281     0.00920
C575        C  0.08055653  0.29890304  0.64681591    -0.11260
C576        C  0.08398545  0.31958223  0.62065706     0.03410
C577        C  0.06269511  0.31942387  0.59479692    -0.10680
H578        H  0.50340890  0.27460493  0.63004173     0.09000
H579        H  0.09907389  0.30009828  0.66557844     0.06530
H580        H  0.06768104  0.33515221  0.57415716     0.06380
O581        O  0.45009822  0.33002985  0.51015067    -0.72660
O582        O  0.04796280  0.32696389  0.98776150    -0.73640
O583        O  0.48809441  0.32895725  0.94968985    -0.62260
O584        O  0.01060862  0.32821650  0.54862825    -0.70670
O585        O  0.01369779  0.27496883  0.54658106    -0.70220
O586        O  0.48319650  0.27567430  0.95019207    -0.61470
O587        O  0.04643696  0.27380535  0.98233764    -0.73980
O588        O  0.45027904  0.27669425  0.51347862    -0.72760
Cu589      Cu  0.49927493  0.33038036  0.99903858     1.04560
Cu590      Cu  0.49833752  0.27420790  0.49814629     1.04330
C591        C  0.43472256  0.30337355  0.51615725     0.93540
C592        C  0.06256438  0.30016207  0.98027914     0.92680
C593        C  0.48146045  0.30227482  0.93445637     0.84830
C594        C  0.01660883  0.30107166  0.56318308     0.91100
C595        C  0.40123439  0.19532590  0.96990229     0.03420
C596        C  0.37196361  0.21444020  0.97540978    -0.12730
C597        C  0.34528598  0.21364327  0.95202253     0.00920
C598        C  0.34826784  0.19227631  0.92612075    -0.11260
C599        C  0.37479264  0.17212089  0.92345025     0.03410
C600        C  0.40084589  0.17363102  0.94431610    -0.10680
H601        H  0.36970398  0.22752270  0.49785568     0.09000
H602        H  0.32890901  0.18972573  0.90834282     0.06530
H603        H  0.42162041  0.15786536  0.93972142     0.06380
C604        C  0.09621724  0.30163581  0.96480388     0.03420
C605        C  0.12251151  0.27789718  0.96463751    -0.12730
C606        C  0.15229558  0.28428970  0.94674735     0.00920
C607        C  0.15329059  0.31168932  0.92726063    -0.11260
C608        C  0.12738412  0.33291207  0.92626013     0.03410
C609        C  0.10034189  0.32918837  0.94573259    -0.10680
H610        H  0.11973316  0.25478786  0.47639117     0.09000
H611        H  0.17438901  0.31654903  0.91207604     0.06530
H612        H  0.08094547  0.34701973  0.94343588     0.06380
O613        O  0.29844418  0.23827870  0.92545287    -0.72660
O614        O  0.19994896  0.25984151  0.92156303    -0.73640
O615        O  0.25957865  0.29825493  0.92429853    -0.62260
O616        O  0.23875798  0.20034613  0.92325528    -0.70670
O617        O  0.23040770  0.20115613  0.97577839    -0.70220
O618        O  0.26450131  0.29657658  0.97698305    -0.61470
O619        O  0.20023518  0.26532715  0.97443650    -0.73980
O620        O  0.29519307  0.23177629  0.97797363    -0.72760
Cu621      Cu  0.24927573  0.24917894  0.92174654     1.04560
Cu622      Cu  0.24752476  0.24868398  0.97694662     1.04330
C623        C  0.31218204  0.23020313  0.95238603     0.93540
C624        C  0.18465582  0.26690652  0.94792636     0.92680
C625        C  0.26655849  0.31295649  0.95107094     0.84830
C626        C  0.23012174  0.18534318  0.94929992     0.91100
C627        C  0.29999584  0.09842626  0.53284763     0.03420
C628        C  0.28229426  0.12846037  0.52633694    -0.12730
C629        C  0.28118284  0.15445177  0.55066424     0.00920
C630        C  0.29922711  0.14984983  0.57854819    -0.11260
C631        C  0.31927331  0.12334825  0.58158959     0.03410
C632        C  0.31904914  0.09759318  0.56022540    -0.10680
H633        H  0.27197375  0.13201155  0.00272324     0.09000
H634        H  0.30088523  0.16878544  0.59701100     0.06530
H635        H  0.33461650  0.07669891  0.56502546     0.06380
C636        C  0.28173259  0.34684206  0.95011186     0.03420
C637        C  0.30067085  0.35079907  0.92270627    -0.12730
C638        C  0.32106928  0.37706521  0.91973318     0.00920
C639        C  0.32046415  0.40325152  0.94058651    -0.11260
C640        C  0.30044494  0.40310748  0.96739362     0.03410
C641        C  0.28239997  0.37325904  0.97399008    -0.10680
H642        H  0.30251178  0.33161147  0.90450834     0.09000
H643        H  0.33621068  0.42400703  0.93568941     0.06530
H644        H  0.27158342  0.37021215  0.49746193     0.06380
C645        C  0.28032589  0.44532900  0.65016535     0.03420
C646        C  0.30569071  0.42346836  0.64950902    -0.12730
C647        C  0.32707376  0.42285995  0.62377519     0.00920
C648        C  0.32499409  0.44394064  0.59799706    -0.11260
C649        C  0.29905069  0.46521097  0.59540537     0.03410
C650        C  0.27527086  0.46513854  0.62156579    -0.10680
H651        H  0.30990357  0.40722664  0.66994361     0.09000
H652        H  0.34312850  0.44212061  0.57884047     0.06530
H653        H  0.25281956  0.97794502  0.61920527     0.06380
O654        O  0.27366069  0.04888801  0.51530232    -0.72660
O655        O  0.27368097  0.45299263  0.98373926    -0.73640
O656        O  0.27262443  0.48418743  0.54650347    -0.62260
O657        O  0.27401690  0.01810553  0.95214772    -0.70670
O658        O  0.32672458  0.01113107  0.95116404    -0.70220
O659        O  0.32532553  0.49072213  0.54914498    -0.61470
O660        O  0.32637063  0.45107333  0.99065088    -0.73980
O661        O  0.32646935  0.05076359  0.50961065    -0.72760
Cu662      Cu  0.27276570  0.00107441  0.49937899     1.04560
Cu663      Cu  0.32816765  0.00094297  0.00016115     1.04330
C664        C  0.29963077  0.06555471  0.51606836     0.93540
C665        C  0.29966267  0.43627721  0.98366010     0.92680
C666        C  0.29847621  0.48238552  0.56295837     0.84830
C667        C  0.30043679  0.01955222  0.93644731     0.91100
C668        C  0.21574009  0.35004560  0.55371930     0.03420
C669        C  0.21348321  0.37527340  0.52917768    -0.12730
C670        C  0.19659322  0.40539102  0.53617170     0.00920
C671        C  0.17811414  0.40690257  0.56425738    -0.11260
C672        C  0.17844162  0.38131847  0.58587818     0.03410
C673        C  0.19931221  0.35530427  0.58260459    -0.10680
H674        H  0.22223022  0.37114154  0.00495537     0.09000
H675        H  0.16239281  0.42768387  0.56899334     0.06530
H676        H  0.19846831  0.33650555  0.60117410     0.06380
C677        C  0.21598967  0.15135238  0.94682594     0.03420
C678        C  0.19990704  0.14604124  0.91773980    -0.12730
C679        C  0.17957823  0.11959594  0.91400691     0.00920
C680        C  0.17924690  0.09403538  0.93564363    -0.11260
C681        C  0.19693256  0.09592405  0.96413456     0.03410
C682        C  0.21359329  0.12610881  0.97131192    -0.10680
H683        H  0.19899505  0.16497085  0.89931593     0.09000
H684        H  0.16385847  0.07302590  0.93071646     0.06530
H685        H  0.22227138  0.13023619  0.49553568     0.06380
C686        C  0.21827100  0.44906013  0.84574066     0.03420
C687        C  0.19144953  0.42891455  0.84544638    -0.12730
C688        C  0.17042264  0.42823362  0.87140696     0.00920
C689        C  0.17270891  0.44916213  0.89733664    -0.11260
C690        C  0.20007439  0.46805159  0.90184119     0.03410
C691        C  0.22447080  0.46713199  0.87576007    -0.10680
H692        H  0.18682722  0.41287128  0.82487690     0.09000
H693        H  0.15420293  0.44738919  0.91614306     0.06530
H694        H  0.24813245  0.97754005  0.87922853     0.06380
O695        O  0.22603266  0.48388843  0.95304258    -0.72660
O696        O  0.22444260  0.01818173  0.54850689    -0.73640
O697        O  0.22379234  0.45348553  0.51703709    -0.62260
O698        O  0.22369491  0.04818748  0.98415516    -0.70670
O699        O  0.17078022  0.04984562  0.98958583    -0.70220
O700        O  0.17099914  0.45158118  0.51036396    -0.61470
O701        O  0.17180973  0.01133992  0.54948525    -0.73980
O702        O  0.17346276  0.49035992  0.95041023    -0.72760
Cu703      Cu  0.22522569  0.50096052  0.00072650     1.04560
Cu704      Cu  0.16983172  0.50077350  0.99993281     1.04330
C705        C  0.20044372  0.48284295  0.93607889     0.93540
C706        C  0.19822871  0.01906463  0.56465702     0.92680
C707        C  0.19753508  0.43720492  0.51816360     0.84830
C708        C  0.19745459  0.06430600  0.98235897     0.91100
C709        C  0.34726305  0.44425400  0.77878599     0.03420
C710        C  0.34720677  0.42278138  0.80448125    -0.12730
C711        C  0.37295679  0.42168919  0.82573094     0.00920
C712        C  0.39900541  0.44252525  0.82378937    -0.11260
C713        C  0.40233950  0.46338381  0.79767462     0.03410
C714        C  0.37649636  0.46321964  0.77351322    -0.10680
H715        H  0.32646047  0.40688001  0.80873616     0.09000
H716        H  0.41800503  0.44051196  0.84201522     0.06530
H717        H  0.37950853  0.97506488  0.75054463     0.06380
C718        C  0.46735581  0.09635481  0.79918148     0.03420
C719        C  0.44940771  0.10120062  0.82718204    -0.12730
C720        C  0.42905032  0.12750347  0.83022344     0.00920
C721        C  0.42887835  0.15301413  0.80873160    -0.11260
C722        C  0.44815781  0.15223195  0.78142130     0.03410
C723        C  0.46622342  0.12230554  0.77491486    -0.10680
H724        H  0.44795266  0.08249058  0.84580535     0.09000
H725        H  0.41306807  0.17375362  0.81352534     0.06530
H726        H  0.97700418  0.11890455  0.75141884     0.06380
C727        C  0.03013383  0.40058274  0.80582062     0.03420
C728        C  0.02498645  0.37145863  0.78668261    -0.12730
C729        C  0.04867699  0.34527331  0.78727095     0.00920
C730        C  0.07433851  0.34817147  0.80868127    -0.11260
C731        C  0.07634486  0.37447175  0.82922882     0.03410
C732        C  0.05525824  0.40042607  0.82785847    -0.10680
H733        H  0.50248973  0.36872994  0.77389339     0.09000
H734        H  0.09235347  0.32891145  0.81096177     0.06530
H735        H  0.05948328  0.42133783  0.84363028     0.06380
O736        O  0.45244893  0.48034466  0.77192002    -0.72660
O737        O  0.04734950  0.01258220  0.77601613    -0.73640
O738        O  0.01499615  0.44896716  0.77646045    -0.62260
O739        O  0.48387823  0.04532077  0.77259176    -0.70670
O740        O  0.48885281  0.04776495  0.82522110    -0.70220
O741        O  0.00703507  0.44935943  0.82913216    -0.61470
O742        O  0.04788673  0.00852278  0.82894380    -0.73980
O743        O  0.44874994  0.48857515  0.82435299    -0.72760
Cu744      Cu  0.49975013  0.49676891  0.77337643     1.04560
Cu745      Cu  0.49801852  0.49860781  0.82880330     1.04330
C746        C  0.43530942  0.47977940  0.79740426     0.93540
C747        C  0.06314682  0.01488655  0.80234434     0.92680
C748        C  0.01454922  0.43359425  0.80319945     0.84830
C749        C  0.48204315  0.06216686  0.79834048     0.91100
C750        C  0.28444228  0.05443250  0.84804432     0.03420
C751        C  0.27790616  0.03687458  0.87779136    -0.12730
C752        C  0.30226707  0.03526035  0.90322198     0.00920
C753        C  0.33016257  0.05372645  0.89903291    -0.11260
C754        C  0.33354451  0.07393162  0.87255844     0.03410
C755        C  0.31213316  0.07350270  0.84685519    -0.10680
H756        H  0.25400964  0.52711767  0.88160689     0.09000
H757        H  0.34829350  0.05529277  0.91815310     0.06530
H758        H  0.31700209  0.08885050  0.82589158     0.06380
C759        C  0.21457295  0.05176491  0.65538483     0.03420
C760        C  0.18630734  0.07007881  0.65684516    -0.12730
C761        C  0.16471065  0.06994523  0.63122503     0.00920
C762        C  0.16771525  0.04886197  0.60527485    -0.11260
C763        C  0.19668061  0.03279223  0.59935943     0.03410
C764        C  0.22152366  0.03527130  0.62470897    -0.10680
H765        H  0.18153244  0.08586116  0.67755741     0.09000
H766        H  0.14888053  0.04963514  0.58680734     0.06530
H767        H  0.24597644  0.52735248  0.62015520     0.06380
C768        C  0.09543688  0.03287574  0.80266341     0.03420
C769        C  0.12549755  0.02643581  0.78490172    -0.12730
C770        C  0.15093413  0.05129360  0.78288123     0.00920
C771        C  0.14502826  0.08035171  0.79912743    -0.11260
C772        C  0.11889858  0.08356753  0.81990125     0.03410
C773        C  0.09391802  0.06122518  0.82089563    -0.10680
H774        H  0.12926004  0.50257289  0.77471697     0.09000
H775        H  0.16339497  0.09940428  0.79985602     0.06530
H776        H  0.07333439  0.06585446  0.83684269     0.06380
O777        O  0.25963525  0.07967541  0.80105116    -0.72660
O778        O  0.23948611  0.07876502  0.70211980    -0.73640
O779        O  0.20032115  0.07676847  0.76161699    -0.62260
O780        O  0.29946865  0.08003533  0.74221602    -0.70670
O781        O  0.29910192  0.02686570  0.73763985    -0.70220
O782        O  0.20214589  0.02384240  0.76796015    -0.61470
O783        O  0.23546705  0.02557698  0.70404597    -0.73980
O784        O  0.26566653  0.02651872  0.80016735    -0.72760
Cu785      Cu  0.24966953  0.08064411  0.75174847     1.04560
Cu786      Cu  0.25065988  0.02459412  0.75243045     1.04330
C787        C  0.26688517  0.05314793  0.81597023     0.93540
C788        C  0.23294482  0.05172944  0.68757590     0.92680
C789        C  0.18556745  0.04995968  0.76899321     0.84830
C790        C  0.31507482  0.05340109  0.73629476     0.91100
C791        C  0.15186435  0.44786644  0.71775137     0.03420
C792        C  0.14572900  0.41818076  0.70262345    -0.12730
C793        C  0.11964507  0.41450600  0.68195483     0.00920
C794        C  0.09528980  0.43734390  0.67986884    -0.11260
C795        C  0.09755967  0.46641505  0.69675472     0.03410
C796        C  0.12730367  0.47306722  0.71443592    -0.10680
H797        H  0.16391589  0.39896975  0.70254642     0.09000
H798        H  0.07467355  0.43256573  0.66403940     0.06530
H799        H  0.13154541  0.99729066  0.72365626     0.06380
C800        C  0.45090261  0.34806958  0.71612166     0.03420
C801        C  0.42293263  0.35296023  0.69833178    -0.12730
C802        C  0.42014535  0.37928188  0.67803041     0.00920
C803        C  0.44138858  0.40513148  0.67852860    -0.11260
C804        C  0.46879845  0.40421577  0.69764995     0.03410
C805        C  0.47546361  0.37389454  0.71477651    -0.10680
H806        H  0.40433908  0.33415602  0.69678014     0.09000
H807        H  0.43657871  0.42603294  0.66302658     0.06530
H808        H  0.99948174  0.37003974  0.72417007     0.06380
C809        C  0.40439022  0.03581570  0.70132357     0.03420
C810        C  0.37823511  0.03607987  0.72559560    -0.12730
C811        C  0.34845869  0.05459526  0.72005598     0.00920
C812        C  0.34844394  0.07554852  0.69402725    -0.11260
C813        C  0.37418127  0.07653143  0.67264738     0.03410
C814        C  0.40058089  0.05617672  0.67487578    -0.10680
H815        H  0.38160478  0.52481692  0.74881022     0.09000
H816        H  0.32765909  0.09132311  0.68963940     0.06530
H817        H  0.41948256  0.05826326  0.65651578     0.06380
C818        C  0.05357603  0.15442339  0.71509027     0.03420
C819        C  0.07123491  0.15638245  0.68657684    -0.12730
C820        C  0.06993964  0.13137609  0.66428924     0.00920
C821        C  0.04911098  0.10528582  0.66769368    -0.11260
C822        C  0.03354469  0.09955307  0.69700607     0.03410
C823        C  0.03635592  0.12447188  0.72187423    -0.10680
H824        H  0.08703306  0.17713468  0.68191926     0.09000
H825        H  0.04951209  0.08671815  0.64880435     0.06530
H826        H  0.52738892  0.12033692  0.74604694     0.06380
O827        O  0.05092237  0.49129431  0.67049891    -0.72660
O828        O  0.45182944  0.01180731  0.67420829    -0.73640
O829        O  0.01130626  0.05042290  0.67302649    -0.62260
O830        O  0.49186656  0.45185266  0.67125661    -0.70670
O831        O  0.48763620  0.45352937  0.72416306    -0.70220
O832        O  0.01941611  0.04956184  0.72557522    -0.61470
O833        O  0.45498662  0.01806120  0.72670859    -0.73980
O834        O  0.05011290  0.48625736  0.72345109    -0.72760
Cu835      Cu  0.50141282  0.00141925  0.67033444     1.04560
Cu836      Cu  0.50305668  0.50182259  0.72582180     1.04330
C837        C  0.06587260  0.48455587  0.69708417     0.93540
C838        C  0.43793207  0.01967984  0.70126089     0.92680
C839        C  0.01966240  0.06544107  0.69921829     0.84830
C840        C  0.48592685  0.43698648  0.69806983     0.91100
C841        C  0.37330929  0.10007910  0.64767685     0.03420
C842        C  0.34734397  0.09975360  0.62667679    -0.12730
C843        C  0.34445318  0.12472979  0.60469743     0.00920
C844        C  0.36718198  0.14966862  0.60283528    -0.11260
C845        C  0.39294368  0.14937340  0.62419110     0.03410
C846        C  0.39642472  0.12464095  0.64682498    -0.10680
H847        H  0.32932092  0.08036234  0.62764843     0.09000
H848        H  0.36504890  0.16881903  0.58475925     0.06530
H849        H  0.41654437  0.12480460  0.66389402     0.06380
C850        C  0.39729316  0.37746730  0.65259000     0.03420
C851        C  0.39893099  0.35169652  0.63068749    -0.12730
C852        C  0.37649021  0.35038925  0.60587331     0.00920
C853        C  0.35319112  0.37456906  0.60235083    -0.11260
C854        C  0.35260272  0.39993390  0.62456867     0.03410
C855        C  0.37459236  0.40181881  0.64964460    -0.10680
H856        H  0.41741270  0.33292158  0.63295301     0.09000
H857        H  0.33542111  0.37340044  0.58288059     0.06530
H858        H  0.37357066  0.42169571  0.66715324     0.06380
C859        C  0.15181054  0.37737663  0.60751557     0.03420
C860        C  0.13035810  0.35166022  0.60228959    -0.12730
C861        C  0.10566878  0.34653310  0.62441938     0.00920
C862        C  0.10149427  0.36720822  0.65098032    -0.11260
C863        C  0.12328665  0.39238792  0.65554442     0.03410
C864        C  0.14838533  0.39800891  0.63369345    -0.10680
H865        H  0.13333492  0.33538217  0.58163101     0.09000
H866        H  0.08168895  0.36355921  0.66807148     0.06530
H867        H  0.16527715  0.41810177  0.63720359     0.06380
C868        C  0.14758137  0.40266959  0.87336162     0.03420
C869        C  0.12423624  0.40020865  0.84970591    -0.12730
C870        C  0.10170907  0.37555048  0.85211522     0.00920
C871        C  0.10230816  0.35328882  0.87727601    -0.11260
C872        C  0.12619873  0.35632356  0.90079535     0.03410
C873        C  0.14922887  0.38076501  0.89900947    -0.10680
H874        H  0.12322119  0.41770576  0.82991670     0.09000
H875        H  0.08422034  0.33400858  0.87866417     0.06530
H876        H  0.16809209  0.38280634  0.91734056     0.06380
C877        C  0.15280631  0.12309106  0.89247663     0.03420
C878        C  0.13098714  0.14842477  0.89787213    -0.12730
C879        C  0.10516489  0.15209514  0.87688588     0.00920
C880        C  0.10029016  0.13052227  0.85120188    -0.11260
C881        C  0.12239775  0.10566960  0.84641808     0.03410
C882        C  0.14855081  0.10136004  0.86727870    -0.10680
H883        H  0.13435758  0.16538723  0.91790871     0.09000
H884        H  0.07987910  0.13344734  0.83475362     0.06530
H885        H  0.16566386  0.08148947  0.86369183     0.06380
C886        C  0.40396289  0.12583409  0.85350290     0.03420
C887        C  0.40106706  0.15036097  0.87613941    -0.12730
C888        C  0.37581549  0.14883293  0.89808692     0.00920
C889        C  0.35344816  0.12358779  0.89745345    -0.11260
C890        C  0.35694782  0.09935624  0.87413096     0.03410
C891        C  0.38191956  0.10028288  0.85185924    -0.10680
H892        H  0.41860949  0.17019079  0.87699515     0.09000
H893        H  0.33381131  0.12260848  0.91510309     0.06530
H894        H  0.38406354  0.08147754  0.83332988     0.06380
C895        C  0.34589240  0.37548241  0.89620323     0.03420
C896        C  0.36836989  0.35031551  0.89755012    -0.12730
C897        C  0.39285132  0.34946136  0.87463446     0.00920
C898        C  0.39526338  0.37340065  0.85099556    -0.11260
C899        C  0.37235739  0.39814309  0.85065728     0.03410
C900        C  0.34763680  0.39953467  0.87310519    -0.10680
H901        H  0.36689197  0.33174375  0.91628588     0.09000
H902        H  0.41457864  0.37269459  0.83298350     0.06530
H903        H  0.32973290  0.41902344  0.87242928     0.06380
C904        C  0.14346648  0.09708592  0.62713883     0.03420
C905        C  0.14820939  0.11768741  0.60066347    -0.12730
C906        C  0.12634892  0.14269111  0.59549831     0.00920
C907        C  0.10063667  0.14810059  0.61678073    -0.11260
C908        C  0.09661628  0.12735732  0.64273395     0.03410
C909        C  0.11816322  0.10196348  0.64852196    -0.10680
H910        H  0.16832862  0.11392057  0.58396086     0.09000
H911        H  0.08368976  0.16804167  0.61296670     0.06530
H912        H  0.11481392  0.08571434  0.66908155     0.06380
O913        O  0.07907973  0.70100242  0.24052269    -0.72660
O914        O  0.07533906  0.79896506  0.26228514    -0.73640
O915        O  0.07614333  0.73932982  0.30048301    -0.62260
O916        O  0.07686056  0.76088884  0.20199039    -0.70670
O917        O  0.02417722  0.76600240  0.20305347    -0.70220
O918        O  0.02361005  0.73148120  0.29894311    -0.61470
O919        O  0.02270106  0.79590853  0.26856887    -0.73980
O920        O  0.02618465  0.70178032  0.23465780    -0.72760
Cu921      Cu  0.07876324  0.75012790  0.25135712     1.04560
Cu922      Cu  0.02355486  0.74875920  0.25128028     1.04330
C923        C  0.05266123  0.68608664  0.23316337     0.93540
C924        C  0.04838862  0.81263012  0.27037855     0.92680
C925        C  0.04973144  0.73100623  0.31525727     0.84830
C926        C  0.05034086  0.76791048  0.18682244     0.91100
O927        O  0.20047321  0.92326101  0.24009334    -0.72660
O928        O  0.29893925  0.91964941  0.25596086    -0.73640
O929        O  0.24157117  0.92208945  0.29818571    -0.62260
O930        O  0.25743552  0.92081022  0.19854505    -0.70670
O931        O  0.26488944  0.97381850  0.19911585    -0.70220
O932        O  0.23627424  0.97509486  0.29573247    -0.61470
O933        O  0.29888353  0.97281937  0.26146290    -0.73980
O934        O  0.20243812  0.97601012  0.23201807    -0.72760
Cu935      Cu  0.24953024  0.91963058  0.24819647     1.04560
Cu936      Cu  0.25070719  0.97562387  0.24710903     1.04330
C937        C  0.18598942  0.94978585  0.23177894     0.93540
C938        C  0.31446373  0.94607245  0.26244495     0.92680
C939        C  0.23521783  0.94921532  0.31271631     0.84830
C940        C  0.26464283  0.94720633  0.18324968     0.91100
O941        O  0.42324947  0.73929901  0.19987152    -0.72660
O942        O  0.42291021  0.76070342  0.29750164    -0.73640
O943        O  0.42491410  0.79941229  0.23835760    -0.62260
O944        O  0.42207552  0.70018472  0.25835547    -0.70670
O945        O  0.47484374  0.70163307  0.26434395    -0.70220
O946        O  0.47739080  0.79697531  0.23118180    -0.61470
O947        O  0.47561202  0.76655206  0.29610582    -0.73980
O948        O  0.47589989  0.73169040  0.20120021    -0.72760
Cu949      Cu  0.42137211  0.74996784  0.24850558     1.04560
Cu950      Cu  0.47655525  0.74921836  0.24823546     1.04330
C951        C  0.44953953  0.73047142  0.18541193     0.93540
C952        C  0.44937069  0.76867114  0.31214730     0.92680
C953        C  0.45169267  0.81381760  0.23050658     0.84590
C954        C  0.44874945  0.68517593  0.26492314     0.91100
O955        O  0.29766291  0.76315072  0.07627367    -0.72660
O956        O  0.19920034  0.74094300  0.07859460    -0.73640
O957        O  0.25904506  0.70301469  0.07647695    -0.62260
O958        O  0.23790665  0.80087616  0.07764158    -0.70670
O959        O  0.23074031  0.80030955  0.02500982    -0.70220
O960        O  0.26483419  0.70497067  0.02386564    -0.61470
O961        O  0.20081771  0.73607241  0.02569811    -0.73980
O962        O  0.29583399  0.77018250  0.02374191    -0.72760
Cu963      Cu  0.24851318  0.75203104  0.07913959     1.04560
Cu964      Cu  0.24804322  0.75294495  0.02392639     1.04330
C965        C  0.31218338  0.77143025  0.04976684     0.93540
C966        C  0.18464400  0.73390335  0.05186458     0.92680
C967        C  0.26639963  0.68844588  0.04971725     0.84830
C968        C  0.22988366  0.81601100  0.05149578     0.91100
C969        C  0.15291121  0.71533049  0.05201215     0.03420
C970        C  0.15501165  0.68652127  0.06934159    -0.12730
C971        C  0.12996647  0.66422717  0.06855385     0.00920
C972        C  0.10355814  0.66781298  0.04824626    -0.11260
C973        C  0.09754388  0.69719262  0.03267000     0.03410
C974        C  0.12264122  0.72213341  0.03517700    -0.10680
H975        H  0.17586634  0.68177418  0.08481800     0.09000
H976        H  0.08507917  0.64887700  0.04897788     0.06530
H977        H  0.11834488  0.74638244  0.52626439     0.06380
C978        C  0.03414631  0.69791517  0.40540817     0.03420
C979        C  0.02721094  0.71503884  0.37529966    -0.12730
C980        C  0.05148784  0.71667483  0.34945948     0.00920
C981        C  0.08001736  0.69951050  0.35436669    -0.11260
C982        C  0.08342514  0.67890940  0.38054054     0.03410
C983        C  0.06211466  0.67912994  0.40641005    -0.10680
H984        H  0.50318037  0.72452421  0.37169261     0.09000
H985        H  0.09833259  0.69817544  0.33535197     0.06530
H986        H  0.06698637  0.66343342  0.42708423     0.06380
C987        C  0.46488712  0.69516375  0.09736639     0.03420
C988        C  0.47123166  0.71355967  0.12658122    -0.12730
C989        C  0.44756595  0.71420272  0.15260110     0.00920
C990        C  0.42029563  0.69462522  0.14931823    -0.11260
C991        C  0.41673977  0.67443173  0.12278541     0.03410
C992        C  0.43777953  0.67518675  0.09674675    -0.10680
H993        H  0.99439815  0.72515981  0.12932517     0.09000
H994        H  0.40264586  0.69269771  0.16890233     0.06530
H995        H  0.43291385  0.65966431  0.07585361     0.06380
O996        O  0.04698739  0.72537964  0.01778446    -0.72660
O997        O  0.45039085  0.72320060  0.48750697    -0.73640
O998        O  0.48365200  0.72331583  0.04985146    -0.62260
O999        O  0.01379066  0.72427113  0.45411097    -0.70670
O1000       O  0.00945174  0.67104121  0.45192146    -0.70220
O1001       O  0.48926840  0.67003175  0.05025894    -0.61470
O1002       O  0.44990061  0.66995439  0.49182845    -0.73980
O1003       O  0.04828310  0.67236569  0.01118965    -0.72760
Cu1004     Cu  0.49865854  0.72518376  0.50229881     1.04560
Cu1005     Cu  0.49927850  0.66902687  0.50127733     1.04330
C1006       C  0.06315278  0.69899684  0.01883369     0.93540
C1007       C  0.43449924  0.69662233  0.48595118     0.92680
C1008       C  0.48215820  0.69657436  0.06530280     0.84830
C1009       C  0.01608489  0.69808080  0.43758859     0.91100
C1010       C  0.40235645  0.80433471  0.03383293     0.03420
C1011       C  0.37203113  0.78740261  0.02705967    -0.12730
C1012       C  0.34601750  0.78666544  0.05116580     0.00920
C1013       C  0.35052759  0.80521684  0.07898549    -0.11260
C1014       C  0.37767535  0.82458448  0.08270447     0.03410
C1015       C  0.40366972  0.82331789  0.06161493    -0.10680
H1016       H  0.36832984  0.77733075  0.50324125     0.09000
H1017       H  0.33123600  0.80745941  0.09691496     0.06530
H1018       H  0.42495383  0.83820512  0.06671694     0.06380
C1019       C  0.46453465  0.80330001  0.40174186     0.03420
C1020       C  0.47118440  0.78523925  0.37202662    -0.12730
C1021       C  0.44776632  0.78486471  0.34551392     0.00920
C1022       C  0.42059574  0.80454542  0.34899655    -0.11260
C1023       C  0.41679437  0.82443085  0.37578643     0.03410
C1024       C  0.43744381  0.82324988  0.40210843    -0.10680
H1025       H  0.99444159  0.77383012  0.36914278     0.09000
H1026       H  0.40306774  0.80674101  0.32939337     0.06530
H1027       H  0.43231445  0.83858805  0.42308151     0.06380
C1028       C  0.03457380  0.80082313  0.09573142     0.03420
C1029       C  0.02751604  0.78382773  0.12618578    -0.12730
C1030       C  0.05184221  0.78207375  0.15216331     0.00920
C1031       C  0.08054349  0.79889152  0.14680772    -0.11260
C1032       C  0.08397508  0.81957882  0.12065548     0.03410
C1033       C  0.06268785  0.81942749  0.09479213    -0.10680
H1034       H  0.50340866  0.77460238  0.13004373     0.09000
H1035       H  0.09905735  0.80008240  0.16557414     0.06530
H1036       H  0.06767574  0.83516181  0.07415749     0.06380
O1037       O  0.45009797  0.83002416  0.01015615    -0.72660
O1038       O  0.04804705  0.82693862  0.48771897    -0.73640
O1039       O  0.48809991  0.82894639  0.44968801    -0.62260
O1040       O  0.01061038  0.82821770  0.04861062    -0.70670
O1041       O  0.01369059  0.77496925  0.04656619    -0.70220
O1042       O  0.48320269  0.77566251  0.45018296    -0.61470
O1043       O  0.04649735  0.77377872  0.48230286    -0.73980
O1044       O  0.45028195  0.77668837  0.01347992    -0.72760
Cu1045     Cu  0.49927192  0.83037311  0.49903582     1.04560
Cu1046     Cu  0.49834005  0.77420529  0.99814745     1.04330
C1047       C  0.43472392  0.80336644  0.01616086     0.93540
C1048       C  0.06263111  0.80013039  0.48022506     0.92680
C1049       C  0.48146979  0.80226541  0.43445026     0.84830
C1050       C  0.01660721  0.80107262  0.06316624     0.91100
C1051       C  0.40127601  0.69528364  0.46993853     0.03420
C1052       C  0.37201871  0.71442031  0.47543488    -0.12730
C1053       C  0.34533273  0.71361433  0.45205793     0.00920
C1054       C  0.34829545  0.69221992  0.42617615    -0.11260
C1055       C  0.37481251  0.67205263  0.42351176     0.03410
C1056       C  0.40086934  0.67356355  0.44437307    -0.10680
H1057       H  0.36970104  0.72751746  0.99785521     0.09000
H1058       H  0.32893285  0.68966885  0.40840223     0.06530
H1059       H  0.42163752  0.65778867  0.43978183     0.06380
C1060       C  0.09625644  0.80158965  0.46469189     0.03420
C1061       C  0.12258367  0.77788920  0.46457745    -0.12730
C1062       C  0.15234640  0.78426791  0.44665111     0.00920
C1063       C  0.15329625  0.81161624  0.42709087    -0.11260
C1064       C  0.12736271  0.83280443  0.42604929     0.03410
C1065       C  0.10032118  0.82908294  0.44552431    -0.10680
H1066       H  0.11973502  0.75479078  0.97639451     0.09000
H1067       H  0.17439070  0.81647658  0.41190115     0.06530
H1068       H  0.08089939  0.84688278  0.44319740     0.06380
O1069       O  0.29852639  0.73828675  0.42546426    -0.72660
O1070       O  0.20004407  0.75986391  0.42151529    -0.73640
O1071       O  0.25967062  0.79827121  0.42429756    -0.62260
O1072       O  0.23883422  0.70036322  0.42322292    -0.70670
O1073       O  0.23044338  0.70117369  0.47573990    -0.70220
O1074       O  0.26453573  0.79659350  0.47698731    -0.61470
O1075       O  0.20027561  0.76533588  0.47439235    -0.73980
O1076       O  0.29523382  0.73177700  0.47798168    -0.72760
Cu1077     Cu  0.24936368  0.74919609  0.42172963     1.04560
Cu1078     Cu  0.24756436  0.74869593  0.47692955     1.04330
C1079       C  0.31224144  0.73020112  0.45240538     0.93540
C1080       C  0.18472422  0.76692034  0.44786530     0.92680
C1081       C  0.26662036  0.81297400  0.45107749     0.84830
C1082       C  0.23017411  0.68536224  0.44926091     0.91100
C1083       C  0.30000578  0.59839469  0.03282758     0.03420
C1084       C  0.28229815  0.62842614  0.02632093    -0.12730
C1085       C  0.28119029  0.65441865  0.05064733     0.00920
C1086       C  0.29924030  0.64981802  0.07852744    -0.11260
C1087       C  0.31929170  0.62331969  0.08156412     0.03410
C1088       C  0.31906816  0.59756522  0.06019946    -0.10680
H1089       H  0.27197634  0.63200549  0.50271980     0.09000
H1090       H  0.30089818  0.66875284  0.09699116     0.06530
H1091       H  0.33463921  0.57667316  0.06499676     0.06380
C1092       C  0.28179318  0.84686224  0.45013305     0.03420
C1093       C  0.30075383  0.85081979  0.42274368    -0.12730
C1094       C  0.32114554  0.87709210  0.41977987     0.00920
C1095       C  0.32052399  0.90327812  0.44063117    -0.11260
C1096       C  0.30048268  0.90313492  0.46742204     0.03410
C1097       C  0.28243266  0.87328549  0.47400621    -0.10680
H1098       H  0.30260969  0.83163271  0.40454669     0.09000
H1099       H  0.33626842  0.92403658  0.43573943     0.06530
H1100       H  0.27157913  0.87021959  0.99745993     0.06380
C1101       C  0.28032810  0.94532668  0.15015553     0.03420
C1102       C  0.30568791  0.92346019  0.14949790    -0.12730
C1103       C  0.32707168  0.92284915  0.12376453     0.00920
C1104       C  0.32499750  0.94393268  0.09798786    -0.11260
C1105       C  0.29905847  0.96520847  0.09539750     0.03410
C1106       C  0.27527786  0.96513889  0.12155694    -0.10680
H1107       H  0.30989776  0.90721694  0.16993197     0.09000
H1108       H  0.34313230  0.94211139  0.07883173     0.06530
H1109       H  0.25279785  0.47792134  0.11918202     0.06380
O1110       O  0.27366052  0.54886129  0.01528476    -0.72660
O1111       O  0.27370051  0.95301619  0.48375821    -0.73640
O1112       O  0.27263137  0.98419079  0.04649991    -0.62260
O1113       O  0.27402442  0.51810461  0.45215038    -0.70670
O1114       O  0.32673056  0.51112545  0.45117071    -0.70220
O1115       O  0.32533322  0.99072051  0.04913691    -0.61470
O1116       O  0.32638993  0.95111198  0.49067465    -0.73980
O1117       O  0.32646966  0.55072526  0.00959251    -0.72760
Cu1118     Cu  0.27275609  0.50104913  0.99936170     1.04560
Cu1119     Cu  0.32816712  0.50094076  0.50016917     1.04330
C1120       C  0.29963424  0.56552191  0.01605119     0.93540
C1121       C  0.29968668  0.93630771  0.48368275     0.92680
C1122       C  0.29848445  0.98238520  0.06295198     0.84830
C1123       C  0.30044462  0.51954698  0.43645083     0.91100
C1124       C  0.21575030  0.85001031  0.05373990     0.03420
C1125       C  0.21349049  0.87523693  0.02919860    -0.12730
C1126       C  0.19660802  0.90535704  0.03619693     0.00920
C1127       C  0.17813701  0.90687237  0.06428816    -0.11260
C1128       C  0.17846300  0.88128705  0.08590823     0.03410
C1129       C  0.19932811  0.85526910  0.08262879    -0.10680
H1130       H  0.22222664  0.87114369  0.50494747     0.09000
H1131       H  0.16241983  0.92765618  0.06902702     0.06530
H1132       H  0.19848368  0.83646849  0.10119631     0.06380
C1133       C  0.21603456  0.65137632  0.44677995     0.03420
C1134       C  0.19995661  0.64606923  0.41769040    -0.12730
C1135       C  0.17962344  0.61962710  0.41395446     0.00920
C1136       C  0.17928625  0.59406528  0.43559142    -0.11260
C1137       C  0.19696189  0.59595402  0.46408864     0.03410
C1138       C  0.21362246  0.62613728  0.47126834    -0.10680
H1139       H  0.19905090  0.66500091  0.39926830     0.09000
H1140       H  0.16389615  0.57305748  0.43066262     0.06530
H1141       H  0.22226426  0.63023813  0.99553324     0.06380
C1142       C  0.21829928  0.94907015  0.34574201     0.03420
C1143       C  0.19148421  0.92891928  0.34544873    -0.12730
C1144       C  0.17046414  0.92821903  0.37141410     0.00920
C1145       C  0.17275839  0.94912210  0.39736147    -0.11260
C1146       C  0.20010759  0.96803845  0.40185303     0.03410
C1147       C  0.22449621  0.96714154  0.37576253    -0.10680
H1148       H  0.18685691  0.91288870  0.32487021     0.09000
H1149       H  0.15426224  0.94732916  0.41617578     0.06530
H1150       H  0.24812131  0.47756286  0.37920226     0.06380
O1151       O  0.22605357  0.98389096  0.45305339    -0.72660
O1152       O  0.22444283  0.51817691  0.04850077    -0.73640
O1153       O  0.22380033  0.95345517  0.01706152    -0.62260
O1154       O  0.22371027  0.54821521  0.48412293    -0.70670
O1155       O  0.17079523  0.54988724  0.48954912    -0.70220
O1156       O  0.17100775  0.95153799  0.01038211    -0.61470
O1157       O  0.17181009  0.51133613  0.04948673    -0.73980
O1158       O  0.17348308  0.99035605  0.45040973    -0.72760
Cu1159     Cu  0.22523527  0.00096419  0.50073507     1.04560
Cu1160     Cu  0.16984094  0.00077338  0.49993155     1.04330
C1161       C  0.20046818  0.98284049  0.43608516     0.93540
C1162       C  0.19823134  0.51905914  0.06465538     0.92680
C1163       C  0.19754613  0.93716848  0.01818513     0.84830
C1164       C  0.19747363  0.56433946  0.48232035     0.91100
C1165       C  0.34726605  0.94426447  0.27877952     0.03420
C1166       C  0.34720424  0.92280509  0.30448645    -0.12730
C1167       C  0.37295452  0.92171920  0.32573519     0.00920
C1168       C  0.39900275  0.94255426  0.32378819    -0.11260
C1169       C  0.40234186  0.96339958  0.29766449     0.03410
C1170       C  0.37650199  0.96322497  0.27349956    -0.10680
H1171       H  0.32645711  0.90690644  0.30874741     0.09000
H1172       H  0.41800168  0.94054499  0.34201538     0.06530
H1173       H  0.37950384  0.47506360  0.25054066     0.06380
C1174       C  0.46735518  0.59635961  0.29918566     0.03420
C1175       C  0.44941748  0.60121017  0.32719223    -0.12730
C1176       C  0.42905979  0.62751287  0.33023708     0.00920
C1177       C  0.42888251  0.65302251  0.30874453    -0.11260
C1178       C  0.44815368  0.65223653  0.28142752     0.03410
C1179       C  0.46621646  0.62230876  0.27491769    -0.10680
H1180       H  0.44796603  0.58250119  0.34581685     0.09000
H1181       H  0.41307335  0.67376203  0.31354159     0.06530
H1182       H  0.97700246  0.61892128  0.25140483     0.06380
C1183       C  0.03014669  0.90058522  0.30573078     0.03420
C1184       C  0.02496670  0.87143687  0.28663431    -0.12730
C1185       C  0.04869108  0.84527936  0.28717109     0.00920
C1186       C  0.07441559  0.84822736  0.30849746    -0.11260
C1187       C  0.07644191  0.87453431  0.32903108     0.03410
C1188       C  0.05533518  0.90047199  0.32769385    -0.10680
H1189       H  0.50248195  0.86872030  0.27389272     0.09000
H1190       H  0.09245005  0.82898296  0.31075540     0.06530
H1191       H  0.05957154  0.92139129  0.34345303     0.06380
O1192       O  0.45245517  0.98034800  0.27190832    -0.72660
O1193       O  0.04735093  0.51258829  0.27601068    -0.73640
O1194       O  0.01498780  0.94897492  0.27640794    -0.62260
O1195       O  0.48387406  0.54532425  0.27259224    -0.70670
O1196       O  0.48884819  0.54776525  0.32522161    -0.70220
O1197       O  0.00701984  0.94933263  0.32907752    -0.61470
O1198       O  0.04788645  0.50853525  0.32893904    -0.73980
O1199       O  0.44875595  0.98858657  0.32433951    -0.72760
Cu1200     Cu  0.49975666  0.99677269  0.27336440     1.04560
Cu1201     Cu  0.49802539  0.99860945  0.32879005     1.04330
C1202       C  0.43531469  0.97978915  0.29739176     0.93540
C1203       C  0.06314722  0.51489631  0.30233950     0.92680
C1204       C  0.01453412  0.93358348  0.30313512     0.84830
C1205       C  0.48203892  0.56216923  0.29834195     0.91100
C1206       C  0.28444814  0.55442492  0.34804544     0.03420
C1207       C  0.27790890  0.53687445  0.37779696    -0.12730
C1208       C  0.30227684  0.53524585  0.40322041     0.00920
C1209       C  0.33018363  0.55369133  0.39901944    -0.11260
C1210       C  0.33356521  0.57390057  0.37254785     0.03410
C1211       C  0.31214755  0.57348231  0.34684963    -0.10680
H1212       H  0.25400873  0.02714744  0.38162768     0.09000
H1213       H  0.34832148  0.55524771  0.41813380     0.06530
H1214       H  0.31701642  0.58883090  0.32588661     0.06380
C1215       C  0.21458139  0.55176085  0.15538367     0.03420
C1216       C  0.18631703  0.57007661  0.15684336    -0.12730
C1217       C  0.16471854  0.56994033  0.13122524     0.00920
C1218       C  0.16772208  0.54885634  0.10527569    -0.11260
C1219       C  0.19668690  0.53278599  0.09935898     0.03410
C1220       C  0.22152994  0.53526283  0.12470926    -0.10680
H1221       H  0.18154313  0.58586063  0.17755456     0.09000
H1222       H  0.14888593  0.54962899  0.08680962     0.06530
H1223       H  0.24596253  0.02735075  0.12017521     0.06380
C1224       C  0.09543742  0.53288517  0.30265783     0.03420
C1225       C  0.12549850  0.52644062  0.28489858    -0.12730
C1226       C  0.15093377  0.55129876  0.28287062     0.00920
C1227       C  0.14502324  0.58036392  0.29910279    -0.11260
C1228       C  0.11889853  0.58358228  0.31988281     0.03410
C1229       C  0.09391960  0.56123788  0.32088613    -0.10680
H1230       H  0.12925496  0.00257160  0.27468157     0.09000
H1231       H  0.16338647  0.59942014  0.29982115     0.06530
H1232       H  0.07333815  0.56586858  0.33683545     0.06380
O1233       O  0.25963934  0.57967214  0.30105377    -0.72660
O1234       O  0.23949404  0.57876174  0.20211909    -0.73640
O1235       O  0.20032684  0.57676752  0.26161397    -0.62260
O1236       O  0.29947376  0.58003302  0.24221794    -0.70670
O1237       O  0.29910459  0.52686355  0.23764124    -0.70220
O1238       O  0.20214606  0.52384147  0.26795810    -0.61470
O1239       O  0.23547083  0.52557432  0.20404696    -0.73980
O1240       O  0.26566634  0.52651507  0.30016908    -0.72760
Cu1241     Cu  0.24967512  0.58064158  0.25174894     1.04560
Cu1242     Cu  0.25066165  0.52459156  0.25243127     1.04330
C1243       C  0.26688694  0.55314374  0.31597281     0.93540
C1244       C  0.23295177  0.55172601  0.18757564     0.92680
C1245       C  0.18556973  0.54996036  0.26898889     0.84830
C1246       C  0.31507845  0.55339842  0.23629559     0.91100
C1247       C  0.15186409  0.94787069  0.21774639     0.03420
C1248       C  0.14572013  0.91817496  0.20264075    -0.12730
C1249       C  0.11964133  0.91449489  0.18196597     0.00920
C1250       C  0.09529250  0.93733880  0.17986001    -0.11260
C1251       C  0.09756561  0.96642018  0.19672863     0.03410
C1252       C  0.12730954  0.97307593  0.21441035    -0.10680
H1253       H  0.16390050  0.89895787  0.20258068     0.09000
H1254       H  0.07467916  0.93255700  0.16402795     0.06530
H1255       H  0.13153857  0.49728647  0.22365940     0.06380
C1256       C  0.45090343  0.84807151  0.21611766     0.03420
C1257       C  0.42293310  0.85296103  0.19832808    -0.12730
C1258       C  0.42014548  0.87928059  0.17802399     0.00920
C1259       C  0.44138832  0.90513054  0.17851984    -0.11260
C1260       C  0.46879730  0.90421771  0.19764280     0.03410
C1261       C  0.47546323  0.87389791  0.21477196    -0.10680
H1262       H  0.40433947  0.83415676  0.19677823     0.09000
H1263       H  0.43657837  0.92603026  0.16301557     0.06530
H1264       H  0.99947173  0.87008021  0.22418657     0.06380
C1265       C  0.40439260  0.53581302  0.20132233     0.03420
C1266       C  0.37823816  0.53607793  0.22559487    -0.12730
C1267       C  0.34846098  0.55459183  0.22005444     0.00920
C1268       C  0.34844437  0.57554275  0.19402338    -0.11260
C1269       C  0.37418268  0.57652686  0.17264497     0.03410
C1270       C  0.40058321  0.55617365  0.17487445    -0.10680
H1271       H  0.38160071  0.02481657  0.24881235     0.09000
H1272       H  0.32765819  0.59131492  0.18963309     0.06530
H1273       H  0.41948532  0.55826080  0.15651493     0.06380
C1274       C  0.05356424  0.65440244  0.21507936     0.03420
C1275       C  0.07122450  0.65636472  0.18656705    -0.12730
C1276       C  0.06993536  0.63135756  0.16428047     0.00920
C1277       C  0.04910882  0.60526575  0.16768304    -0.11260
C1278       C  0.03353930  0.59953407  0.19699381     0.03410
C1279       C  0.03634883  0.62444993  0.22186306    -0.10680
H1280       H  0.08702025  0.67711913  0.18191070     0.09000
H1281       H  0.04951345  0.58669702  0.14879478     0.06530
H1282       H  0.52737938  0.62033401  0.24604649     0.06380
O1283       O  0.05092980  0.99129258  0.17045636    -0.72660
O1284       O  0.45183182  0.51180379  0.17420771    -0.73640
O1285       O  0.01129798  0.55040792  0.17301609    -0.62260
O1286       O  0.49186315  0.95185462  0.17124730    -0.70670
O1287       O  0.48763365  0.95353367  0.22415345    -0.70220
O1288       O  0.01941204  0.54954778  0.22556443    -0.61470
O1289       O  0.45498869  0.51806080  0.22670768    -0.73980
O1290       O  0.05012073  0.98628814  0.22341111    -0.72760
Cu1291     Cu  0.50141581  0.50141735  0.17033476     1.04560
Cu1292     Cu  0.50305533  0.00182723  0.22581074     1.04330
C1293       C  0.06588011  0.98456739  0.19704533     0.93540
C1294       C  0.43793433  0.51967759  0.20125994     0.92680
C1295       C  0.01965652  0.56542523  0.19920693     0.84830
C1296       C  0.48592422  0.93698942  0.19806110     0.91100
C1297       C  0.37331110  0.60007270  0.14767327     0.03420
C1298       C  0.34735698  0.59973294  0.12665966    -0.12730
C1299       C  0.34446969  0.62470352  0.10467346     0.00920
C1300       C  0.36719068  0.64964976  0.10281781    -0.11260
C1301       C  0.39294033  0.64936942  0.12418807     0.03410
C1302       C  0.39641787  0.62464314  0.14682924    -0.10680
H1303       H  0.32933909  0.58033669  0.12762753     0.09000
H1304       H  0.36505960  0.66879601  0.08473712     0.06530
H1305       H  0.41652967  0.62481603  0.16390746     0.06380
C1306       C  0.39729277  0.87746243  0.15258399     0.03420
C1307       C  0.39892792  0.85168609  0.13068789    -0.12730
C1308       C  0.37648426  0.85037208  0.10587674     0.00920
C1309       C  0.35318456  0.87455086  0.10235049    -0.11260
C1310       C  0.35259957  0.89992212  0.12456116     0.03410
C1311       C  0.37459209  0.90181355  0.14963432    -0.10680
H1312       H  0.41741044  0.83291221  0.13295558     0.09000
H1313       H  0.33541316  0.87337793  0.08288178     0.06530
H1314       H  0.37357213  0.92169483  0.16713812     0.06380
C1315       C  0.15182951  0.87734602  0.10754411     0.03420
C1316       C  0.13036765  0.85163947  0.10230775    -0.12730
C1317       C  0.10566529  0.84652323  0.12442584     0.00920
C1318       C  0.10148910  0.86719797  0.15098703    -0.11260
C1319       C  0.12329091  0.89236792  0.15556248     0.03410
C1320       C  0.14840210  0.89797803  0.13372217    -0.10680
H1321       H  0.13334502  0.83536207  0.08164873     0.09000
H1322       H  0.08167433  0.86355672  0.16806886     0.06530
H1323       H  0.16529885  0.91806569  0.13723779     0.06380
C1324       C  0.14759638  0.90267842  0.37332348     0.03420
C1325       C  0.12428323  0.90026038  0.34963231    -0.12730
C1326       C  0.10177609  0.87557868  0.35194939     0.00920
C1327       C  0.10235338  0.85325805  0.37706187    -0.11260
C1328       C  0.12620725  0.85625438  0.40061953     0.03410
C1329       C  0.14922082  0.88071947  0.39892496    -0.10680
H1330       H  0.12328745  0.91779815  0.32987749     0.09000
H1331       H  0.08427432  0.83396490  0.37838621     0.06530
H1332       H  0.16806018  0.88272956  0.41728373     0.06380
C1333       C  0.15284771  0.62312857  0.39242865     0.03420
C1334       C  0.13102607  0.64845862  0.39783515    -0.12730
C1335       C  0.10518335  0.65211428  0.37687072     0.00920
C1336       C  0.10029500  0.63053440  0.35119453    -0.11260
C1337       C  0.12240704  0.60568819  0.34639687     0.03410
C1338       C  0.14857728  0.60139075  0.36723894    -0.10680
H1339       H  0.13440589  0.66542501  0.41786671     0.09000
H1340       H  0.07987051  0.63345070  0.33476132     0.06530
H1341       H  0.16569094  0.58152185  0.36364559     0.06380
C1342       C  0.40396848  0.62583289  0.35351189     0.03420
C1343       C  0.40108162  0.65033474  0.37617651    -0.12730
C1344       C  0.37583919  0.64877999  0.39813426     0.00920
C1345       C  0.35347239  0.62353584  0.39748126    -0.11260
C1346       C  0.35696334  0.59932980  0.37413068     0.03410
C1347       C  0.38192426  0.60028346  0.35184844    -0.10680
H1348       H  0.41862372  0.67016412  0.37704609     0.09000
H1349       H  0.33384162  0.62253829  0.41513665     0.06530
H1350       H  0.38406401  0.58149607  0.33330050     0.06380
C1351       C  0.34596093  0.87552557  0.39624238     0.03420
C1352       C  0.36843994  0.85036072  0.39757080    -0.12730
C1353       C  0.39289230  0.84949727  0.37462524     0.00920
C1354       C  0.39527514  0.87342705  0.35097500    -0.11260
C1355       C  0.37236908  0.89817025  0.35065746     0.03410
C1356       C  0.34767518  0.89957000  0.37313363    -0.10680
H1357       H  0.36698131  0.83179295  0.41631214     0.09000
H1358       H  0.41457099  0.87271683  0.33294227     0.06530
H1359       H  0.32976843  0.91905649  0.37247025     0.06380
C1360       C  0.14347198  0.59707883  0.12713942     0.03420
C1361       C  0.14821213  0.61767866  0.10066257    -0.12730
C1362       C  0.12634654  0.64267672  0.09549340     0.00920
C1363       C  0.10063264  0.64808348  0.11677430    -0.11260
C1364       C  0.09661477  0.62734177  0.14272876     0.03410
C1365       C  0.11816625  0.60195270  0.14852057    -0.10680
H1366       H  0.16833285  0.61391408  0.08396120     0.09000
H1367       H  0.08368240  0.66802135  0.11295827     0.06530
H1368       H  0.11481819  0.58570406  0.16908073     0.06380
O1369       O  0.07908056  0.70100641  0.74051676    -0.72660
O1370       O  0.07533390  0.79897009  0.76228188    -0.73640
O1371       O  0.07614493  0.73933351  0.80047790    -0.62260
O1372       O  0.07685589  0.76089409  0.70198536    -0.70670
O1373       O  0.02417202  0.76600210  0.70305043    -0.70220
O1374       O  0.02361261  0.73147963  0.79893972    -0.61470
O1375       O  0.02269693  0.79590816  0.76856896    -0.73980
O1376       O  0.02618500  0.70178049  0.73465552    -0.72760
Cu1377     Cu  0.07876147  0.75013248  0.75135206     1.04560
Cu1378     Cu  0.02355359  0.74875886  0.75127790     1.04330
C1379       C  0.05266246  0.68608843  0.73315988     0.93540
C1380       C  0.04838276  0.81263231  0.77037834     0.92680
C1381       C  0.04973432  0.73100753  0.81525306     0.84830
C1382       C  0.05033494  0.76791313  0.68681839     0.91100
O1383       O  0.20047002  0.92325840  0.74010345    -0.72660
O1384       O  0.29893650  0.91964993  0.75596188    -0.73640
O1385       O  0.24157339  0.92208684  0.79819328    -0.62260
O1386       O  0.25742777  0.92081093  0.69855026    -0.70670
O1387       O  0.26488544  0.97381863  0.69912334    -0.70220
O1388       O  0.23627482  0.97509206  0.79574118    -0.61470
O1389       O  0.29888228  0.97281989  0.76146787    -0.73980
O1390       O  0.20243691  0.97600747  0.73202744    -0.72760
Cu1391     Cu  0.24952750  0.91962957  0.74820251     1.04560
Cu1392     Cu  0.25070559  0.97562273  0.74711687     1.04330
C1393       C  0.18598753  0.94978372  0.73178892     0.93540
C1394       C  0.31446170  0.94607231  0.76244698     0.92680
C1395       C  0.23522066  0.94921232  0.81272502     0.84830
C1396       C  0.26463553  0.94720738  0.68325572     0.91100
O1397       O  0.42324968  0.73929506  0.69987059    -0.72660
O1398       O  0.42291061  0.76069598  0.79750097    -0.73640
O1399       O  0.42491367  0.79940756  0.73835821    -0.62260
O1400       O  0.42207628  0.70017959  0.75835298    -0.70670
O1401       O  0.47484430  0.70162814  0.76434345    -0.70220
O1402       O  0.47739013  0.79697172  0.73118103    -0.61470
O1403       O  0.47561205  0.76654695  0.79610515    -0.73980
O1404       O  0.47590006  0.73168566  0.70119938    -0.72760
Cu1405     Cu  0.42137244  0.74996259  0.74850466     1.04560
Cu1406     Cu  0.47655546  0.74921379  0.74823463     1.04330
C1407       C  0.44953960  0.73046692  0.68541117     0.93540
C1408       C  0.44937079  0.76866408  0.81214692     0.92680
C1409       C  0.45169171  0.81381380  0.73050695     0.84590
C1410       C  0.44874994  0.68517092  0.76492177     0.91100
O1411       O  0.29765441  0.76319013  0.57627274    -0.72660
O1412       O  0.19919380  0.74097851  0.57860147    -0.73640
O1413       O  0.25904092  0.70305524  0.57648853    -0.62260
O1414       O  0.23789630  0.80091640  0.57763495    -0.70670
O1415       O  0.23073369  0.80034139  0.52500270    -0.70220
O1416       O  0.26482467  0.70499975  0.52387612    -0.61470
O1417       O  0.20081061  0.73610078  0.52570573    -0.73980
O1418       O  0.29582948  0.77020628  0.52373869    -0.72760
Cu1419     Cu  0.24850587  0.75207078  0.57914206     1.04560
Cu1420     Cu  0.24803601  0.75297392  0.52392755     1.04330
C1421       C  0.31217759  0.77145954  0.54976431     0.93540
C1422       C  0.18463791  0.73393276  0.55187287     0.92680
C1423       C  0.26639344  0.68848096  0.54973128     0.84830
C1424       C  0.22987396  0.81604717  0.55148638     0.91100
C1425       C  0.15290795  0.71535479  0.55202298     0.03420
C1426       C  0.15501240  0.68654673  0.56935459    -0.12730
C1427       C  0.12997298  0.66424587  0.56856271     0.00920
C1428       C  0.10356639  0.66782574  0.54825140    -0.11260
C1429       C  0.09754607  0.69720486  0.53267657     0.03410
C1430       C  0.12263814  0.72215074  0.53518476    -0.10680
H1431       H  0.17586632  0.68180465  0.58483349     0.09000
H1432       H  0.08509204  0.64888508  0.54897976     0.06530
H1433       H  0.11835172  0.74636652  0.02625928     0.06380
C1434       C  0.03414765  0.69791422  0.90540199     0.03420
C1435       C  0.02721137  0.71503591  0.87529245    -0.12730
C1436       C  0.05149211  0.71667909  0.84945633     0.00920
C1437       C  0.08002675  0.69952492  0.85436881    -0.11260
C1438       C  0.08343453  0.67892109  0.88054073     0.03410
C1439       C  0.06211977  0.67913491  0.90640701    -0.10680
H1440       H  0.50318119  0.72451844  0.87169228     0.09000
H1441       H  0.09834569  0.69819609  0.83535723     0.06530
H1442       H  0.06699107  0.66343760  0.92708074     0.06380
C1443       C  0.46488610  0.69516034  0.59736560     0.03420
C1444       C  0.47123121  0.71355508  0.62658086    -0.12730
C1445       C  0.44756558  0.71419816  0.65260051     0.00920
C1446       C  0.42029492  0.69462112  0.64931734    -0.11260
C1447       C  0.41673825  0.67442860  0.62278385     0.03410
C1448       C  0.43777787  0.67518368  0.59674514    -0.10680
H1449       H  0.99439651  0.72515019  0.62933486     0.09000
H1450       H  0.40264553  0.69269316  0.66890174     0.06530
H1451       H  0.43291144  0.65966216  0.57585152     0.06380
O1452       O  0.04698631  0.72538494  0.51779065    -0.72660
O1453       O  0.45039076  0.72319796  0.98750466    -0.73640
O1454       O  0.48365218  0.72331486  0.54985265    -0.62260
O1455       O  0.01379346  0.72426923  0.95410448    -0.70670
O1456       O  0.00944790  0.67103989  0.95191291    -0.70220
O1457       O  0.48926894  0.67003067  0.55025826    -0.61470
O1458       O  0.44990021  0.66995198  0.99182756    -0.73980
O1459       O  0.04828727  0.67237080  0.51119818    -0.72760
Cu1460     Cu  0.49865865  0.72518219  0.00229774     1.04560
Cu1461     Cu  0.49927823  0.66902548  0.00127748     1.04330
C1462       C  0.06315438  0.69900390  0.51884084     0.93540
C1463       C  0.43449897  0.69661970  0.98594912     0.92680
C1464       C  0.48215793  0.69657256  0.56530272     0.84830
C1465       C  0.01608441  0.69807931  0.93758114     0.91100
C1466       C  0.40235801  0.80434576  0.53383076     0.03420
C1467       C  0.37202985  0.78741814  0.52705722    -0.12730
C1468       C  0.34601480  0.78668827  0.55116208     0.00920
C1469       C  0.35052825  0.80523912  0.57898139    -0.11260
C1470       C  0.37767911  0.82460195  0.58270074     0.03410
C1471       C  0.40367367  0.82333035  0.56161207    -0.10680
H1472       H  0.36833167  0.77731870  0.00324224     0.09000
H1473       H  0.33123707  0.80748566  0.59691085     0.06530
H1474       H  0.42495993  0.83821429  0.56671446     0.06380
C1475       C  0.46453272  0.80329334  0.90174212     0.03420
C1476       C  0.47118367  0.78523254  0.87202704    -0.12730
C1477       C  0.44776562  0.78485628  0.84551418     0.00920
C1478       C  0.42059356  0.80453470  0.84899693    -0.11260
C1479       C  0.41679155  0.82442087  0.87578591     0.03410
C1480       C  0.43744094  0.82324182  0.90210798    -0.10680
H1481       H  0.99444451  0.77382423  0.86914985     0.09000
H1482       H  0.40306523  0.80672903  0.82939388     0.06530
H1483       H  0.43231096  0.83858069  0.92308039     0.06380
C1484       C  0.03456546  0.80082489  0.59572682     0.03420
C1485       C  0.02750994  0.78382617  0.62617988    -0.12730
C1486       C  0.05183405  0.78207895  0.65216005     0.00920
C1487       C  0.08053036  0.79890643  0.64680823    -0.11260
C1488       C  0.08395927  0.81959392  0.62065576     0.03410
C1489       C  0.06267465  0.81943645  0.59479042    -0.10680
H1490       H  0.50340902  0.77459634  0.63004223     0.09000
H1491       H  0.09904229  0.80010181  0.66557629     0.06530
H1492       H  0.06766071  0.83517155  0.57415591     0.06380
O1493       O  0.45010226  0.83002960  0.51015450    -0.72660
O1494       O  0.04804914  0.82694046  0.98772362    -0.73640
O1495       O  0.48809520  0.82894251  0.94968842    -0.62260
O1496       O  0.01060561  0.82821807  0.54860398    -0.70670
O1497       O  0.01368363  0.77496955  0.54656083    -0.70220
O1498       O  0.48320236  0.77565833  0.95018417    -0.61470
O1499       O  0.04650132  0.77378045  0.98230730    -0.73980
O1500       O  0.45028132  0.77669373  0.51347830    -0.72760
Cu1501     Cu  0.49926773  0.83037115  0.99903631     1.04560
Cu1502     Cu  0.49834002  0.77420728  0.49814619     1.04330
C1503       C  0.43472565  0.80337337  0.51615903     0.93540
C1504       C  0.06263386  0.80013283  0.98022905     0.92680
C1505       C  0.48146749  0.80226074  0.93445092     0.84830
C1506       C  0.01660081  0.80107312  0.56316043     0.91100
C1507       C  0.40127610  0.69528073  0.96993519     0.03420
C1508       C  0.37201754  0.71441538  0.97543205    -0.12730
C1509       C  0.34533264  0.71361121  0.95205363     0.00920
C1510       C  0.34829618  0.69221743  0.92617160    -0.11260
C1511       C  0.37481296  0.67204948  0.92350846     0.03410
C1512       C  0.40087040  0.67356153  0.94436902    -0.10680
H1513       H  0.36970474  0.72752707  0.49785568     0.09000
H1514       H  0.32893380  0.68966641  0.90839742     0.06530
H1515       H  0.42163897  0.65778720  0.93977770     0.06380
C1516       C  0.09625880  0.80159316  0.96469564     0.03420
C1517       C  0.12258541  0.77789244  0.96458047    -0.12730
C1518       C  0.15234846  0.78427152  0.94665537     0.00920
C1519       C  0.15329891  0.81162000  0.92709533    -0.11260
C1520       C  0.12736500  0.83280771  0.92605269     0.03410
C1521       C  0.10032363  0.82908668  0.94552833    -0.10680
H1522       H  0.11973445  0.75478835  0.47639387     0.09000
H1523       H  0.17439346  0.81647998  0.91190565     0.06530
H1524       H  0.08090163  0.84688626  0.94320136     0.06380
O1525       O  0.29852630  0.73828586  0.92546040    -0.72660
O1526       O  0.20004368  0.75986472  0.92151888    -0.73640
O1527       O  0.25966984  0.79827169  0.92430021    -0.62260
O1528       O  0.23883295  0.70036270  0.92322150    -0.70670
O1529       O  0.23044063  0.70117464  0.97573769    -0.70220
O1530       O  0.26454009  0.79659270  0.97698968    -0.61470
O1531       O  0.20027741  0.76533830  0.97439613    -0.73980
O1532       O  0.29523311  0.73177236  0.97797677    -0.72760
Cu1533     Cu  0.24936293  0.74919621  0.92172970     1.04560
Cu1534     Cu  0.24756518  0.74869564  0.97692847     1.04330
C1535       C  0.31224112  0.73019796  0.95240090     0.93540
C1536       C  0.18472527  0.76692262  0.94786934     0.92680
C1537       C  0.26662166  0.81297415  0.95107997     0.84830
C1538       C  0.23017188  0.68536221  0.94925954     0.91100
C1539       C  0.29998933  0.59842491  0.53285050     0.03420
C1540       C  0.28229285  0.62846179  0.52633773    -0.12730
C1541       C  0.28117905  0.65445173  0.55066663     0.00920
C1542       C  0.29921702  0.64984559  0.57855433    -0.11260
C1543       C  0.31926040  0.62334191  0.58159781     0.03410
C1544       C  0.31903618  0.59758764  0.56023254    -0.10680
H1545       H  0.27196770  0.63196213  0.00270833     0.09000
H1546       H  0.30087457  0.66878015  0.59701816     0.06530
H1547       H  0.33460112  0.57669170  0.56503335     0.06380
C1548       C  0.28179463  0.84686256  0.95013412     0.03420
C1549       C  0.30075543  0.85081788  0.92274459    -0.12730
C1550       C  0.32114759  0.87708958  0.91977868     0.00920
C1551       C  0.32052767  0.90327663  0.94062871    -0.11260
C1552       C  0.30048570  0.90313608  0.96741914     0.03410
C1553       C  0.28243334  0.87328856  0.97400452    -0.10680
H1554       H  0.30261084  0.83162955  0.90454883     0.09000
H1555       H  0.33627307  0.92403402  0.93573577     0.06530
H1556       H  0.27158204  0.87021102  0.49746285     0.06380
C1557       C  0.28031982  0.94532846  0.65016130     0.03420
C1558       C  0.30568208  0.92346480  0.64950490    -0.12730
C1559       C  0.32706701  0.92285611  0.62377261     0.00920
C1560       C  0.32499059  0.94393819  0.59799528    -0.11260
C1561       C  0.29904886  0.96521044  0.59540303     0.03410
C1562       C  0.27526788  0.96513935  0.62156219    -0.10680
H1563       H  0.30989274  0.90722211  0.66993918     0.09000
H1564       H  0.34312628  0.94211815  0.57883990     0.06530
H1565       H  0.25282084  0.47794273  0.61921009     0.06380
O1566       O  0.27365759  0.54888593  0.51530247    -0.72660
O1567       O  0.27370253  0.95301549  0.98375863    -0.73640
O1568       O  0.27262431  0.98419024  0.54650221    -0.62260
O1569       O  0.27401838  0.51808243  0.95213364    -0.70670
O1570       O  0.32672322  0.51108968  0.95115078    -0.70220
O1571       O  0.32532598  0.99072048  0.54914343    -0.61470
O1572       O  0.32639329  0.95111561  0.99066620    -0.73980
O1573       O  0.32646612  0.55076499  0.50961104    -0.72760
Cu1574     Cu  0.27276587  0.50107202  0.49937959     1.04560
Cu1575     Cu  0.32815804  0.50090174  0.00014754     1.04330
C1576       C  0.29962655  0.56555450  0.51606859     0.93540
C1577       C  0.29969007  0.93630941  0.98367843     0.92680
C1578       C  0.29847606  0.98238572  0.56295668     0.84830
C1579       C  0.30043877  0.51951997  0.93643368     0.91100
C1580       C  0.21573336  0.85004488  0.55372581     0.03420
C1581       C  0.21348048  0.87527537  0.52918717    -0.12730
C1582       C  0.19658855  0.90539145  0.53618099     0.00920
C1583       C  0.17810542  0.90690050  0.56426465    -0.11260
C1584       C  0.17842862  0.88131368  0.58588301     0.03410
C1585       C  0.19929720  0.85529768  0.58260768    -0.10680
H1586       H  0.22222345  0.87109760  0.00495506     0.09000
H1587       H  0.16238481  0.92768222  0.56900089     0.06530
H1588       H  0.19844941  0.83649543  0.60117348     0.06380
C1589       C  0.21603325  0.65137531  0.94678016     0.03420
C1590       C  0.19996150  0.64606427  0.91768811    -0.12730
C1591       C  0.17962524  0.61962446  0.91395353     0.00920
C1592       C  0.17928287  0.59406485  0.93559319    -0.11260
C1593       C  0.19695590  0.59595473  0.96409222     0.03410
C1594       C  0.21361531  0.62613942  0.97127170    -0.10680
H1595       H  0.19906030  0.66499326  0.89926303     0.09000
H1596       H  0.16389138  0.57305805  0.93066462     0.06530
H1597       H  0.22227724  0.63023123  0.49552818     0.06380
C1598       C  0.21830011  0.94906616  0.84574984     0.03420
C1599       C  0.19147783  0.92892501  0.84544796    -0.12730
C1600       C  0.17045584  0.92822393  0.87141133     0.00920
C1601       C  0.17275284  0.94912113  0.89736292    -0.11260
C1602       C  0.20010940  0.96802456  0.90186493     0.03410
C1603       C  0.22450135  0.96712585  0.87577729    -0.10680
H1604       H  0.18684824  0.91289999  0.82486560     0.09000
H1605       H  0.15425349  0.94732849  0.91617402     0.06530
H1606       H  0.24810550  0.47753778  0.87921111     0.06380
O1607       O  0.22605600  0.98386878  0.95306992    -0.72660
O1608       O  0.22444485  0.51818284  0.54849876    -0.73640
O1609       O  0.22379066  0.95348439  0.51704494    -0.62260
O1610       O  0.22370216  0.54821249  0.98412364    -0.70670
O1611       O  0.17078799  0.54988909  0.98955635    -0.70220
O1612       O  0.17099716  0.95158201  0.51037140    -0.61470
O1613       O  0.17181237  0.51133915  0.54948059    -0.73980
O1614       O  0.17348438  0.99032438  0.95042932    -0.72760
Cu1615     Cu  0.22523315  0.00093703  0.00075475     1.04560
Cu1616     Cu  0.16983885  0.00073052  0.99995227     1.04330
C1617       C  0.20047014  0.98281616  0.93610222     0.93540
C1618       C  0.19823206  0.51906492  0.56465062     0.92680
C1619       C  0.19753234  0.93720533  0.51817275     0.84830
C1620       C  0.19746672  0.56433957  0.98232468     0.91100
C1621       C  0.34726468  0.94426148  0.77877901     0.03420
C1622       C  0.34720496  0.92279634  0.80448118    -0.12730
C1623       C  0.37295565  0.92170773  0.82572905     0.00920
C1624       C  0.39900300  0.94254431  0.82378509    -0.11260
C1625       C  0.40233962  0.96339549  0.79766569     0.03410
C1626       C  0.37649909  0.96322461  0.77350194    -0.10680
H1627       H  0.32645836  0.90689651  0.80874043     0.09000
H1628       H  0.41800243  0.94053317  0.84201152     0.06530
H1629       H  0.37950294  0.47506660  0.75055941     0.06380
C1630       C  0.46735320  0.59635468  0.79918578     0.03420
C1631       C  0.44941041  0.60120378  0.82718917    -0.12730
C1632       C  0.42905169  0.62750579  0.83023154     0.00920
C1633       C  0.42887660  0.65301562  0.80873922    -0.11260
C1634       C  0.44815282  0.65223119  0.78142556     0.03410
C1635       C  0.46621805  0.62230436  0.77491827    -0.10680
H1636       H  0.44795734  0.58249477  0.84581367     0.09000
H1637       H  0.41306641  0.67375468  0.81353467     0.06530
H1638       H  0.97701495  0.61892119  0.75140936     0.06380
C1639       C  0.03013558  0.90058235  0.80574552     0.03420
C1640       C  0.02495634  0.87143636  0.78664466    -0.12730
C1641       C  0.04868312  0.84528019  0.78717498     0.00920
C1642       C  0.07440910  0.84822729  0.80849962    -0.11260
C1643       C  0.07643465  0.87453101  0.82903723     0.03410
C1644       C  0.05532532  0.90046690  0.82770687    -0.10680
H1645       H  0.50247805  0.86872051  0.77389272     0.09000
H1646       H  0.09244584  0.82898448  0.81075293     0.06530
H1647       H  0.05956165  0.92138394  0.84346905     0.06380
O1648       O  0.45245155  0.98034822  0.77191133    -0.72660
O1649       O  0.04736890  0.51257825  0.77602428    -0.73640
O1650       O  0.01497297  0.94897514  0.77642924    -0.62260
O1651       O  0.48387609  0.54531896  0.77259615    -0.70670
O1652       O  0.48884611  0.54776304  0.82522594    -0.70220
O1653       O  0.00701045  0.94932850  0.82909932    -0.61470
O1654       O  0.04790024  0.50855431  0.82895527    -0.73980
O1655       O  0.44875115  0.98858374  0.82434308    -0.72760
Cu1656     Cu  0.49975260  0.99677210  0.77336877     1.04560
Cu1657     Cu  0.49802002  0.99860819  0.82879466     1.04330
C1658       C  0.43531085  0.97978738  0.79739458     0.93540
C1659       C  0.06316229  0.51490238  0.80235324     0.92680
C1660       C  0.01452242  0.93358126  0.80315491     0.84830
C1661       C  0.48203871  0.56216523  0.79834485     0.91100
C1662       C  0.28445089  0.55441495  0.84803624     0.03420
C1663       C  0.27791121  0.53685541  0.87778126    -0.12730
C1664       C  0.30227422  0.53522749  0.90320861     0.00920
C1665       C  0.33017688  0.55368201  0.89901853    -0.11260
C1666       C  0.33356009  0.57389580  0.87255055     0.03410
C1667       C  0.31214636  0.57347850  0.84684883    -0.10680
H1668       H  0.25400866  0.02712595  0.88161498     0.09000
H1669       H  0.34831058  0.55523782  0.91813691     0.06530
H1670       H  0.31701601  0.58883114  0.82588896     0.06380
C1671       C  0.21458262  0.55176621  0.65537710     0.03420
C1672       C  0.18631719  0.57008022  0.65683932    -0.12730
C1673       C  0.16471844  0.56994587  0.63122101     0.00920
C1674       C  0.16772159  0.54886339  0.60527001    -0.11260
C1675       C  0.19668622  0.53279306  0.59935294     0.03410
C1676       C  0.22153089  0.53527192  0.62470088    -0.10680
H1677       H  0.18154331  0.58586222  0.67755208     0.09000
H1678       H  0.14888590  0.54963689  0.58680348     0.06530
H1679       H  0.24596963  0.02735336  0.62016513     0.06380
C1680       C  0.09545004  0.53289473  0.80266401     0.03420
C1681       C  0.12551012  0.52644762  0.78490458    -0.12730
C1682       C  0.15094248  0.55130753  0.78286735     0.00920
C1683       C  0.14503028  0.58037777  0.79909054    -0.11260
C1684       C  0.11890628  0.58360030  0.81987076     0.03410
C1685       C  0.09392982  0.56125364  0.82088233    -0.10680
H1686       H  0.12924437  0.00256699  0.77470025     0.09000
H1687       H  0.16339243  0.59943517  0.79980353     0.06530
H1688       H  0.07334917  0.56588695  0.83683196     0.06380
O1689       O  0.25964774  0.57966634  0.80104532    -0.72660
O1690       O  0.23950121  0.57876278  0.70211214    -0.73640
O1691       O  0.20033631  0.57677129  0.76160812    -0.62260
O1692       O  0.29948173  0.58002544  0.74221297    -0.70670
O1693       O  0.29910837  0.52685604  0.73763174    -0.70220
O1694       O  0.20215062  0.52384504  0.76795178    -0.61470
O1695       O  0.23547195  0.52557544  0.70403799    -0.73980
O1696       O  0.26567029  0.52650844  0.80015805    -0.72760
Cu1697     Cu  0.24968368  0.58063945  0.75174215     1.04560
Cu1698     Cu  0.25066480  0.52458941  0.75242182     1.04330
C1699       C  0.26689322  0.55313650  0.81596254     0.93540
C1700       C  0.23295495  0.55172834  0.68756797     0.92680
C1701       C  0.18557738  0.54996575  0.76898451     0.84830
C1702       C  0.31508473  0.55338997  0.73629022     0.91100
C1703       C  0.15186362  0.94787003  0.71775493     0.03420
C1704       C  0.14572445  0.91818067  0.70263510    -0.12730
C1705       C  0.11963969  0.91450320  0.68196740     0.00920
C1706       C  0.09528526  0.93734257  0.67987812    -0.11260
C1707       C  0.09755924  0.96641918  0.69675447     0.03410
C1708       C  0.12730600  0.97307335  0.71443102    -0.10680
H1709       H  0.16390970  0.89896816  0.70256233     0.09000
H1710       H  0.07466765  0.93256261  0.66405098     0.06530
H1711       H  0.13153803  0.49728109  0.72367187     0.06380
C1712       C  0.45090103  0.84806914  0.71612032     0.03420
C1713       C  0.42292847  0.85295981  0.69833433    -0.12730
C1714       C  0.42013690  0.87928260  0.67803516     0.00920
C1715       C  0.44137837  0.90513361  0.67853220    -0.11260
C1716       C  0.46879090  0.90421882  0.69764960     0.03410
C1717       C  0.47546014  0.87389670  0.71477424    -0.10680
H1718       H  0.40433592  0.83415460  0.69678294     0.09000
H1719       H  0.43656547  0.92603523  0.66303130     0.06530
H1720       H  0.99946752  0.87007535  0.72419941     0.06380
C1721       C  0.40440152  0.53580877  0.70132223     0.03420
C1722       C  0.37824654  0.53607287  0.72559382    -0.12730
C1723       C  0.34846812  0.55458344  0.72005116     0.00920
C1724       C  0.34845150  0.57553405  0.69402044    -0.11260
C1725       C  0.37418929  0.57651893  0.67264109     0.03410
C1726       C  0.40059149  0.55616781  0.67487258    -0.10680
H1727       H  0.38159073  0.02481897  0.74880994     0.09000
H1728       H  0.32766495  0.59130613  0.68963144     0.06530
H1729       H  0.41949376  0.55825510  0.65651339     0.06380
C1730       C  0.05356560  0.65440323  0.71507723     0.03420
C1731       C  0.07122047  0.65636598  0.68656172    -0.12730
C1732       C  0.06993132  0.63135696  0.66427697     0.00920
C1733       C  0.04910753  0.60526332  0.66768417    -0.11260
C1734       C  0.03354255  0.59953187  0.69699761     0.03410
C1735       C  0.03635455  0.62444913  0.72186538    -0.10680
H1736       H  0.08701339  0.67712183  0.68190212     0.09000
H1737       H  0.04951124  0.58669347  0.64879704     0.06530
H1738       H  0.52738691  0.62033062  0.74605447     0.06380
O1739       O  0.05092740  0.99130701  0.67049278    -0.72660
O1740       O  0.45184239  0.51180207  0.67421032    -0.73640
O1741       O  0.01129983  0.55040377  0.67302473    -0.62260
O1742       O  0.49185488  0.95185678  0.67125233    -0.70670
O1743       O  0.48762694  0.95353598  0.72415841    -0.70220
O1744       O  0.01941874  0.54954600  0.72557220    -0.61470
O1745       O  0.45499500  0.51805231  0.72671154    -0.73980
O1746       O  0.05010992  0.98626697  0.72344395    -0.72760
Cu1747     Cu  0.50142485  0.50141398  0.67034015     1.04560
Cu1748     Cu  0.50304801  0.00182984  0.72581523     1.04330
C1749       C  0.06587370  0.98456505  0.69707938     0.93540
C1750       C  0.43794316  0.51967347  0.70126208     0.92680
C1751       C  0.01966080  0.56542240  0.69921393     0.84830
C1752       C  0.48591753  0.93699119  0.69806647     0.91100
C1753       C  0.37331436  0.60006619  0.64766954     0.03420
C1754       C  0.34734346  0.59974291  0.62667595    -0.12730
C1755       C  0.34444370  0.62472367  0.60470281     0.00920
C1756       C  0.36717059  0.64966442  0.60283922    -0.11260
C1757       C  0.39293834  0.64936688  0.62418770     0.03410
C1758       C  0.39642756  0.62463029  0.64681601    -0.10680
H1759       H  0.32932208  0.58035015  0.62764878     0.09000
H1760       H  0.36503191  0.66881782  0.58476701     0.06530
H1761       H  0.41655085  0.62479350  0.66388077     0.06380
C1762       C  0.39728526  0.87746589  0.65259439     0.03420
C1763       C  0.39892772  0.85169655  0.63069048    -0.12730
C1764       C  0.37649011  0.85038912  0.60587360     0.00920
C1765       C  0.35318985  0.87456757  0.60234941    -0.11260
C1766       C  0.35259661  0.89993084  0.62456878     0.03410
C1767       C  0.37458288  0.90181573  0.64964775    -0.10680
H1768       H  0.41741055  0.83292285  0.63295699     0.09000
H1769       H  0.33542224  0.87339872  0.58287697     0.06530
H1770       H  0.37355810  0.92169189  0.66715704     0.06380
C1771       C  0.15179813  0.87737422  0.60752265     0.03420
C1772       C  0.13033847  0.85166488  0.60229275    -0.12730
C1773       C  0.10564827  0.84653993  0.62442249     0.00920
C1774       C  0.10148130  0.86720965  0.65098879    -0.11260
C1775       C  0.12328090  0.89238262  0.65555778     0.03410
C1776       C  0.14838045  0.89800104  0.63370630    -0.10680
H1777       H  0.13331016  0.83539034  0.58163067     0.09000
H1778       H  0.08167510  0.86356262  0.66807933     0.06530
H1779       H  0.16527701  0.91808940  0.63721881     0.06380
C1780       C  0.14759162  0.90267989  0.87332073     0.03420
C1781       C  0.12427771  0.90025868  0.84963095    -0.12730
C1782       C  0.10177246  0.87557547  0.85195101     0.00920
C1783       C  0.10235286  0.85325586  0.87706426    -0.11260
C1784       C  0.12620802  0.85625481  0.90062019     0.03410
C1785       C  0.14921997  0.88072111  0.89892251    -0.10680
H1786       H  0.12327863  0.91779619  0.82987607     0.09000
H1787       H  0.08427446  0.83396225  0.87839113     0.06530
H1788       H  0.16806016  0.88273340  0.91728022     0.06380
C1789       C  0.15285057  0.62313026  0.89242729     0.03420
C1790       C  0.13103024  0.64846111  0.89783652    -0.12730
C1791       C  0.10519276  0.65212601  0.87686723     0.00920
C1792       C  0.10030754  0.63055320  0.85118432    -0.11260
C1793       C  0.12241809  0.60570613  0.84638434     0.03410
C1794       C  0.14858400  0.60140059  0.86723015    -0.10680
H1795       H  0.13440800  0.66542175  0.91787325     0.09000
H1796       H  0.07988532  0.63347422  0.83474912     0.06530
H1797       H  0.16569635  0.58153088  0.86363506     0.06380
C1798       C  0.40396164  0.62582735  0.85350779     0.03420
C1799       C  0.40107704  0.65032981  0.87617191    -0.12730
C1800       C  0.37583818  0.64877435  0.89813354     0.00920
C1801       C  0.35347287  0.62352853  0.89748569    -0.11260
C1802       C  0.35696112  0.59932229  0.87413507     0.03410
C1803       C  0.38191883  0.60027658  0.85184902    -0.10680
H1804       H  0.41861828  0.67016012  0.87703823     0.09000
H1805       H  0.33384417  0.62253124  0.91514336     0.06530
H1806       H  0.38405664  0.58148899  0.83330105     0.06380
C1807       C  0.34596195  0.87552056  0.89624038     0.03420
C1808       C  0.36843950  0.85035464  0.89756973    -0.12730
C1809       C  0.39289009  0.84948745  0.87462263     0.00920
C1810       C  0.39527282  0.87341458  0.85096969    -0.11260
C1811       C  0.37236830  0.89815896  0.85065126     0.03410
C1812       C  0.34767583  0.89956243  0.87312897    -0.10680
H1813       H  0.36698115  0.83178887  0.91631308     0.09000
H1814       H  0.41456798  0.87270203  0.83293631     0.06530
H1815       H  0.32977031  0.91905003  0.87246508     0.06380
C1816       C  0.14347240  0.59708500  0.62713701     0.03420
C1817       C  0.14821822  0.61769241  0.60066677    -0.12730
C1818       C  0.12635363  0.64269222  0.59550030     0.00920
C1819       C  0.10063501  0.64809229  0.61677735    -0.11260
C1820       C  0.09661051  0.62734202  0.64272418     0.03410
C1821       C  0.11816118  0.60195159  0.64851322    -0.10680
H1822       H  0.16834179  0.61393179  0.58396799     0.09000
H1823       H  0.08368570  0.66803139  0.61296355     0.06530
H1824       H  0.11480985  0.58569763  0.66906870     0.06380
O1825       O  0.57908307  0.20100628  0.24051315    -0.72660
O1826       O  0.57533632  0.29896909  0.26229016    -0.73640
O1827       O  0.57614580  0.23932760  0.30048024    -0.62260
O1828       O  0.57686019  0.26089819  0.20199070    -0.70670
O1829       O  0.52417575  0.26600370  0.20305141    -0.70220
O1830       O  0.52361267  0.23147977  0.29893998    -0.61470
O1831       O  0.52269806  0.29591036  0.26856895    -0.73980
O1832       O  0.52618751  0.20178225  0.23465306    -0.72760
Cu1833     Cu  0.57876393  0.25013182  0.25135539     1.04560
Cu1834     Cu  0.52355539  0.24876031  0.25127794     1.04330
C1835       C  0.55266463  0.18608982  0.23315422     0.93540
C1836       C  0.54838473  0.31263308  0.27038263     0.92680
C1837       C  0.54973388  0.23100358  0.31525413     0.84830
C1838       C  0.55034012  0.26791631  0.18682192     0.91100
O1839       O  0.70046846  0.42325726  0.24010838    -0.72660
O1840       O  0.79893432  0.41965176  0.25596337    -0.73640
O1841       O  0.74157153  0.42208823  0.29819479    -0.62260
O1842       O  0.75742356  0.42081125  0.19855305    -0.70670
O1843       O  0.76488217  0.47381876  0.19912714    -0.70220
O1844       O  0.73626871  0.47509324  0.29574089    -0.61470
O1845       O  0.79887771  0.47282152  0.26147154    -0.73980
O1846       O  0.70243315  0.47600584  0.23202847    -0.72760
Cu1847     Cu  0.74952521  0.41963006  0.24820515     1.04560
Cu1848     Cu  0.75070118  0.47562300  0.24711887     1.04330
C1849       C  0.68598476  0.44978145  0.23179293     0.93540
C1850       C  0.81445838  0.44607451  0.26244946     0.92680
C1851       C  0.73521568  0.44921378  0.31272475     0.84830
C1852       C  0.76463135  0.44720800  0.18325919     0.91100
O1853       O  0.92326063  0.23930670  0.19988138    -0.72660
O1854       O  0.92292649  0.26069905  0.29751628    -0.73640
O1855       O  0.92491752  0.29941505  0.23837489    -0.62260
O1856       O  0.92209803  0.20018658  0.25835906    -0.70670
O1857       O  0.97486624  0.20163744  0.26435154    -0.70220
O1858       O  0.97739279  0.29698158  0.23119345    -0.61470
O1859       O  0.97562776  0.26655474  0.29612000    -0.73980
O1860       O  0.97590958  0.23169564  0.20121285    -0.72760
Cu1861     Cu  0.92138533  0.24996944  0.24851758     1.04560
Cu1862     Cu  0.97656673  0.24922372  0.24824744     1.04330
C1863       C  0.94955105  0.23047877  0.18542265     0.93540
C1864       C  0.94938636  0.26866878  0.31216256     0.92680
C1865       C  0.95169386  0.31382217  0.23052051     0.84590
C1866       C  0.94877280  0.18517869  0.26492538     0.91100
O1867       O  0.79758801  0.26318653  0.07629523    -0.72660
O1868       O  0.69913041  0.24096700  0.07859804    -0.73640
O1869       O  0.75898549  0.20304559  0.07650105    -0.62260
O1870       O  0.73783377  0.30090772  0.07763569    -0.70670
O1871       O  0.73068789  0.30033961  0.02500058    -0.70220
O1872       O  0.76478449  0.20500259  0.02389094    -0.61470
O1873       O  0.70076308  0.23609370  0.02570287    -0.73980
O1874       O  0.79577468  0.27020375  0.02376064    -0.72760
Cu1875     Cu  0.74844236  0.25206243  0.07915067     1.04560
Cu1876     Cu  0.74798719  0.25297134  0.02393587     1.04330
C1877       C  0.81211497  0.27145843  0.04979014     0.93540
C1878       C  0.68458270  0.23392287  0.05186470     0.92680
C1879       C  0.76635128  0.18847936  0.04974295     0.84830
C1880       C  0.72982594  0.31604395  0.05148535     0.91100
C1881       C  0.65285740  0.21533758  0.05200224     0.03420
C1882       C  0.65497184  0.18651671  0.06931076    -0.12730
C1883       C  0.62993589  0.16421192  0.06851058     0.00920
C1884       C  0.60352663  0.16779860  0.04820382    -0.11260
C1885       C  0.59749836  0.19718787  0.03264997     0.03410
C1886       C  0.62258394  0.22213853  0.03517305    -0.10680
H1887       H  0.67582835  0.18177040  0.08478505     0.09000
H1888       H  0.58505482  0.14885532  0.04892488     0.06530
H1889       H  0.61834522  0.24638066  0.52626296     0.06380
C1890       C  0.53414644  0.19791251  0.40540488     0.03420
C1891       C  0.52721166  0.21503543  0.37529568    -0.12730
C1892       C  0.55148938  0.21667126  0.34945610     0.00920
C1893       C  0.58001851  0.19950658  0.35436397    -0.11260
C1894       C  0.58342560  0.17890586  0.38053833     0.03410
C1895       C  0.56211466  0.17912720  0.40640759    -0.10680
H1896       H  0.00320137  0.22451276  0.37164882     0.09000
H1897       H  0.59833408  0.19817131  0.33534957     0.06530
H1898       H  0.56698589  0.16343122  0.42708230     0.06380
C1899       C  0.96491735  0.19516224  0.09738362     0.03420
C1900       C  0.97125674  0.21356024  0.12659859    -0.12730
C1901       C  0.94758155  0.21421317  0.15260998     0.00920
C1902       C  0.92030499  0.19464624  0.14931751    -0.11260
C1903       C  0.91675343  0.17445027  0.12278630     0.03410
C1904       C  0.93780478  0.17519210  0.09675708    -0.10680
H1905       H  0.49437389  0.22517364  0.12930691     0.09000
H1906       H  0.90264687  0.19272635  0.16889476     0.06530
H1907       H  0.93294175  0.15966808  0.07586452     0.06380
O1908       O  0.54694317  0.22537788  0.01777521    -0.72660
O1909       O  0.95040608  0.22321168  0.48747735    -0.73640
O1910       O  0.98368247  0.22331589  0.04987241    -0.62260
O1911       O  0.51379341  0.22427006  0.45410802    -0.70670
O1912       O  0.50944908  0.17104066  0.45191840    -0.70220
O1913       O  0.98930077  0.17003332  0.05027466    -0.61470
O1914       O  0.94991166  0.16996491  0.49179673    -0.73980
O1915       O  0.54823262  0.17236519  0.01117308    -0.72760
Cu1916     Cu  0.99867252  0.22518627  0.50227400     1.04560
Cu1917     Cu  0.99928919  0.16903069  0.50124867     1.04330
C1918       C  0.56310528  0.19899360  0.01882054     0.93540
C1919       C  0.93451248  0.19663440  0.48592022     0.92680
C1920       C  0.98219081  0.19657383  0.06532164     0.84830
C1921       C  0.51608482  0.19807959  0.43758540     0.91100
C1922       C  0.90228407  0.30434485  0.03384460     0.03420
C1923       C  0.87195139  0.28742666  0.02707377    -0.12730
C1924       C  0.84595100  0.28668241  0.05119151     0.00920
C1925       C  0.85047831  0.30521331  0.07902226    -0.11260
C1926       C  0.87763284  0.32457111  0.08274098     0.03410
C1927       C  0.90361685  0.32330921  0.06163866    -0.10680
H1928       H  0.86833568  0.27732531  0.50325722     0.09000
H1929       H  0.83119399  0.30745260  0.09695985     0.06530
H1930       H  0.92490693  0.33818883  0.06673837     0.06380
C1931       C  0.96453935  0.30329901  0.40176052     0.03420
C1932       C  0.97119127  0.28523428  0.37204832    -0.12730
C1933       C  0.94777948  0.28486277  0.34552960     0.00920
C1934       C  0.92061118  0.30454761  0.34900620    -0.11260
C1935       C  0.91680674  0.32443443  0.37579464     0.03410
C1936       C  0.93745154  0.32325314  0.40212040    -0.10680
H1937       H  0.49444810  0.27382738  0.36914285     0.09000
H1938       H  0.90308671  0.30674386  0.32939993     0.06530
H1939       H  0.93232026  0.33859308  0.42309165     0.06380
C1940       C  0.53457294  0.30082652  0.09573117     0.03420
C1941       C  0.52751505  0.28383227  0.12618602    -0.12730
C1942       C  0.55184151  0.28207923  0.15216301     0.00920
C1943       C  0.58054230  0.29889775  0.14680690    -0.11260
C1944       C  0.58397091  0.31958754  0.12065614     0.03410
C1945       C  0.56268501  0.31943288  0.09479208    -0.10680
H1946       H  0.00336037  0.27462000  0.13005118     0.09000
H1947       H  0.59905667  0.30008899  0.16557275     0.06530
H1948       H  0.56767122  0.33516800  0.07415757     0.06380
O1949       O  0.95000769  0.33003847  0.01014428    -0.72660
O1950       O  0.54804800  0.32693852  0.48772098    -0.73640
O1951       O  0.98810060  0.32894653  0.44970855    -0.62260
O1952       O  0.51061505  0.32822065  0.04860858    -0.70670
O1953       O  0.51369025  0.27497137  0.04656694    -0.70220
O1954       O  0.98320293  0.27566286  0.45020480    -0.61470
O1955       O  0.54649886  0.27377881  0.48230416    -0.73980
O1956       O  0.95020950  0.27670400  0.01349173    -0.72760
Cu1957     Cu  0.99927254  0.33037335  0.49905649     1.04560
Cu1958     Cu  0.99827150  0.27422379  0.99816416     1.04330
C1959       C  0.93464301  0.30337868  0.01616045     0.93540
C1960       C  0.56263268  0.30013046  0.48022755     0.92680
C1961       C  0.98147045  0.30226530  0.43447129     0.84830
C1962       C  0.51660810  0.30107535  0.06316570     0.91100
C1963       C  0.90128988  0.19529812  0.46990618     0.03420
C1964       C  0.87202851  0.21442577  0.47541177    -0.12730
C1965       C  0.84533850  0.21361756  0.45203973     0.00920
C1966       C  0.84830134  0.19222742  0.42615381    -0.11260
C1967       C  0.87482406  0.17206832  0.42347955     0.03410
C1968       C  0.90088576  0.17358525  0.44433460    -0.10680
H1969       H  0.86973282  0.22755162  0.99786797     0.09000
H1970       H  0.82893450  0.18967228  0.40838515     0.06530
H1971       H  0.92165708  0.15781607  0.43973802     0.06380
C1972       C  0.59625931  0.30159012  0.46469695     0.03420
C1973       C  0.62258549  0.27788832  0.46458010    -0.12730
C1974       C  0.65234935  0.28426851  0.44665597     0.00920
C1975       C  0.65330053  0.31161882  0.42709853    -0.11260
C1976       C  0.62736736  0.33280732  0.42605799     0.03410
C1977       C  0.60032613  0.32908569  0.44553322    -0.10680
H1978       H  0.61973351  0.25477164  0.97639458     0.09000
H1979       H  0.67439499  0.31647959  0.41190896     0.06530
H1980       H  0.58090511  0.34688652  0.44320736     0.06380
O1981       O  0.79852449  0.23828473  0.42545626    -0.72660
O1982       O  0.70004325  0.25986242  0.42151598    -0.73640
O1983       O  0.75967019  0.29827020  0.42429569    -0.62260
O1984       O  0.73883166  0.20036147  0.42322068    -0.70670
O1985       O  0.73044876  0.20117188  0.47573878    -0.70220
O1986       O  0.76454158  0.29659108  0.47698509    -0.61470
O1987       O  0.70028094  0.26533505  0.47439271    -0.73980
O1988       O  0.79524174  0.23177629  0.47797497    -0.72760
Cu1989     Cu  0.74936225  0.24919453  0.42172687     1.04560
Cu1990     Cu  0.74757051  0.24869422  0.47692736     1.04330
C1991       C  0.81224474  0.23020008  0.45239496     0.93540
C1992       C  0.68472641  0.26691925  0.44786737     0.92680
C1993       C  0.76662275  0.31297231  0.45107544     0.84830
C1994       C  0.73017456  0.18536060  0.44925983     0.91100
C1995       C  0.79998394  0.09843886  0.03285198     0.03420
C1996       C  0.78227034  0.12846692  0.02634697    -0.12730
C1997       C  0.78115843  0.15445984  0.05067282     0.00920
C1998       C  0.79922291  0.14987111  0.07854558    -0.11260
C1999       C  0.81927855  0.12337545  0.08158063     0.03410
C2000       C  0.81905194  0.09761688  0.06021976    -0.10680
H2001       H  0.77197026  0.13199884  0.50272186     0.09000
H2002       H  0.80088240  0.16881051  0.09700449     0.06530
H2003       H  0.83462655  0.07672729  0.06501620     0.06380
C2004       C  0.78179599  0.34686025  0.45013071     0.03420
C2005       C  0.80075880  0.35081614  0.42274272    -0.12730
C2006       C  0.82115006  0.37708875  0.41977875     0.00920
C2007       C  0.82052707  0.40327592  0.44062866    -0.11260
C2008       C  0.80048454  0.40313375  0.46741870     0.03410
C2009       C  0.78243414  0.37328451  0.47400286    -0.10680
H2010       H  0.80261610  0.33162785  0.40454709     0.09000
H2011       H  0.83627128  0.42403441  0.43573642     0.06530
H2012       H  0.77157091  0.37019294  0.99747220     0.06380
C2013       C  0.78031779  0.44532989  0.15016665     0.03420
C2014       C  0.80568535  0.42347268  0.14951560    -0.12730
C2015       C  0.82706886  0.42286145  0.12378277     0.00920
C2016       C  0.82498854  0.44393736  0.09800104    -0.11260
C2017       C  0.79904337  0.46520562  0.09540557     0.03410
C2018       C  0.77526241  0.46513534  0.12156460    -0.10680
H2019       H  0.80989878  0.40723429  0.16995279     0.09000
H2020       H  0.84312286  0.44211417  0.07884475     0.06530
H2021       H  0.75281869  0.97794728  0.11920832     0.06380
O2022       O  0.77364945  0.04889738  0.01530550    -0.72660
O2023       O  0.77370103  0.45301456  0.48375518    -0.73640
O2024       O  0.77261492  0.48418280  0.04650515    -0.62260
O2025       O  0.77402250  0.01810749  0.45214778    -0.70670
O2026       O  0.82672836  0.01112546  0.45116673    -0.70220
O2027       O  0.82531764  0.49070851  0.04914160    -0.61470
O2028       O  0.82639078  0.45111239  0.49067003    -0.73980
O2029       O  0.82645887  0.05077353  0.00961938    -0.72760
Cu2030     Cu  0.77275974  0.00108180  0.99938182     1.04560
Cu2031     Cu  0.82816702  0.00093840  0.50016496     1.04330
C2032       C  0.79961956  0.06556439  0.01607562     0.93540
C2033       C  0.79968784  0.43630707  0.48367879     0.92680
C2034       C  0.79846820  0.48237679  0.06295737     0.84830
C2035       C  0.80044242  0.01954858  0.43644756     0.91100
C2036       C  0.71570449  0.35005040  0.05372377     0.03420
C2037       C  0.71345554  0.37527869  0.02918204    -0.12730
C2038       C  0.69657058  0.40539968  0.03617511     0.00920
C2039       C  0.67809249  0.40691690  0.06426178    -0.11260
C2040       C  0.67841980  0.38133644  0.08588659     0.03410
C2041       C  0.69928565  0.35531843  0.08261266    -0.10680
H2042       H  0.72222734  0.37114300  0.50494538     0.09000
H2043       H  0.66237364  0.42770038  0.06899636     0.06530
H2044       H  0.69844062  0.33652271  0.10118508     0.06380
C2045       C  0.71603382  0.15137467  0.44678128     0.03420
C2046       C  0.69995599  0.14606557  0.41769204    -0.12730
C2047       C  0.67962207  0.11962370  0.41395816     0.00920
C2048       C  0.67928440  0.09406325  0.43559670    -0.11260
C2049       C  0.69695987  0.09595361  0.46409392     0.03410
C2050       C  0.71362018  0.12613761  0.47127179    -0.10680
H2051       H  0.69905092  0.16499569  0.39926834     0.09000
H2052       H  0.66389413  0.07305531  0.43066902     0.06530
H2053       H  0.72225640  0.13021544  0.99553739     0.06380
C2054       C  0.71829619  0.44906812  0.34574884     0.03420
C2055       C  0.69147908  0.42892011  0.34545314    -0.12730
C2056       C  0.67045672  0.42822289  0.37141651     0.00920
C2057       C  0.67275075  0.44912676  0.39736329    -0.11260
C2058       C  0.70010239  0.46803920  0.40185695     0.03410
C2059       C  0.72449293  0.46713916  0.37576909    -0.10680
H2060       H  0.68685232  0.41288918  0.32487471     0.09000
H2061       H  0.65425326  0.44733582  0.41617645     0.06530
H2062       H  0.74812450  0.97756180  0.37921475     0.06380
O2063       O  0.72605088  0.48389153  0.45305494    -0.72660
O2064       O  0.72443518  0.01817703  0.04850817    -0.73640
O2065       O  0.72377631  0.45348939  0.01703902    -0.62260
O2066       O  0.72370858  0.04821623  0.48413216    -0.70670
O2067       O  0.67079335  0.04988706  0.48955556    -0.70220
O2068       O  0.67098341  0.45159014  0.01036224    -0.61470
O2069       O  0.67180325  0.01132931  0.04949103    -0.73980
O2070       O  0.67348010  0.49035634  0.45041412    -0.72760
Cu2071     Cu  0.72523581  0.50096541  0.50073541     1.04560
Cu2072     Cu  0.66984137  0.50077403  0.49993504     1.04330
C2073       C  0.70046443  0.48284052  0.43608856     0.93540
C2074       C  0.69822261  0.01905812  0.06466015     0.92680
C2075       C  0.69751721  0.43721174  0.01816469     0.84830
C2076       C  0.69747164  0.06433977  0.48232743     0.91100
C2077       C  0.84726170  0.44426432  0.27878097     0.03420
C2078       C  0.84720321  0.42279934  0.30448333    -0.12730
C2079       C  0.87295496  0.42171115  0.32573014     0.00920
C2080       C  0.89900147  0.44254865  0.32378529    -0.11260
C2081       C  0.90233717  0.46339905  0.29766532     0.03410
C2082       C  0.87649595  0.46322713  0.27350228    -0.10680
H2083       H  0.82645704  0.40689913  0.30874319     0.09000
H2084       H  0.91800138  0.44053843  0.34201136     0.06530
H2085       H  0.87951022  0.97506715  0.25052538     0.06380
C2086       C  0.96737141  0.09635402  0.29916663     0.03420
C2087       C  0.94941442  0.10118967  0.32716359    -0.12730
C2088       C  0.92905881  0.12749356  0.33021160     0.00920
C2089       C  0.92889053  0.15300989  0.30872706    -0.11260
C2090       C  0.94817566  0.15223513  0.28141983     0.03410
C2091       C  0.96624637  0.12231295  0.27490955    -0.10680
H2092       H  0.94795473  0.08247306  0.34578000     0.09000
H2093       H  0.91308004  0.17374821  0.31352495     0.06530
H2094       H  0.47701509  0.11891544  0.25140675     0.06380
C2095       C  0.53013801  0.40058560  0.30574723     0.03420
C2096       C  0.52496069  0.37144039  0.28664435    -0.12730
C2097       C  0.54868467  0.34528148  0.28717951     0.00920
C2098       C  0.57440773  0.34822722  0.30850798    -0.11260
C2099       C  0.57643285  0.37453164  0.32904509     0.03410
C2100       C  0.55532452  0.40046838  0.32771234    -0.10680
H2101       H  0.00248813  0.36872447  0.27388633     0.09000
H2102       H  0.59244313  0.32898344  0.31076360     0.06530
H2103       H  0.55955989  0.42138525  0.34347499     0.06380
O2104       O  0.95244913  0.48035036  0.27190998    -0.72660
O2105       O  0.54735856  0.01258409  0.27600671    -0.73640
O2106       O  0.51497670  0.44897820  0.27642908    -0.62260
O2107       O  0.98390078  0.04532527  0.27256805    -0.70670
O2108       O  0.98886792  0.04776268  0.32519923    -0.70220
O2109       O  0.50701222  0.44933346  0.32909873    -0.61470
O2110       O  0.54789484  0.00853011  0.32893504    -0.73980
O2111       O  0.94874891  0.48858833  0.32434126    -0.72760
Cu2112     Cu  0.99974964  0.49677585  0.27336706     1.04560
Cu2113     Cu  0.99801776  0.49861313  0.32879242     1.04330
C2114       C  0.93530844  0.47979085  0.29739321     0.93540
C2115       C  0.56315523  0.01489205  0.30233534     0.92680
C2116       C  0.51452576  0.43358527  0.30315524     0.84830
C2117       C  0.98206208  0.06216784  0.29831964     0.91100
C2118       C  0.78445329  0.05442350  0.34803859     0.03420
C2119       C  0.77791067  0.03687457  0.37779041    -0.12730
C2120       C  0.80227528  0.03524890  0.40321774     0.00920
C2121       C  0.83018047  0.05369765  0.39902076    -0.11260
C2122       C  0.83356564  0.07390298  0.37254707     0.03410
C2123       C  0.81215239  0.07348096  0.34684531    -0.10680
H2124       H  0.75400427  0.52714442  0.38162449     0.09000
H2125       H  0.84831548  0.05525675  0.41813763     0.06530
H2126       H  0.81702454  0.08882698  0.32588113     0.06380
C2127       C  0.71457724  0.05177662  0.15537869     0.03420
C2128       C  0.68631573  0.07009798  0.15683523    -0.12730
C2129       C  0.66471464  0.06995623  0.13121830     0.00920
C2130       C  0.66771293  0.04886136  0.10527634    -0.11260
C2131       C  0.69667709  0.03279021  0.09936073     0.03410
C2132       C  0.72152285  0.03527410  0.12470675    -0.10680
H2133       H  0.68154537  0.08588767  0.17754285     0.09000
H2134       H  0.64887451  0.04962688  0.08681224     0.06530
H2135       H  0.74596799  0.52734987  0.12015780     0.06380
C2136       C  0.59544494  0.03288241  0.30265381     0.03420
C2137       C  0.62550606  0.02644115  0.28489313    -0.12730
C2138       C  0.65094063  0.05130042  0.28286776     0.00920
C2139       C  0.64502941  0.08036347  0.29910333    -0.11260
C2140       C  0.61890390  0.08357926  0.31988272     0.03410
C2141       C  0.59392603  0.06123367  0.32088425    -0.10680
H2142       H  0.62924322  0.50257066  0.27470029     0.09000
H2143       H  0.66339210  0.09942014  0.29982374     0.06530
H2144       H  0.57334433  0.06586247  0.33683379     0.06380
O2145       O  0.75964676  0.07967382  0.30104760    -0.72660
O2146       O  0.73949331  0.07877232  0.20211524    -0.73640
O2147       O  0.70033239  0.07677334  0.26161218    -0.62260
O2148       O  0.79947905  0.08003746  0.24220834    -0.70670
O2149       O  0.79911036  0.02686835  0.23762621    -0.70220
O2150       O  0.70215330  0.02384678  0.26795001    -0.61470
O2151       O  0.73547287  0.02558391  0.20403655    -0.73980
O2152       O  0.76567565  0.02651723  0.30015744    -0.72760
Cu2153     Cu  0.74967997  0.08064722  0.25174364     1.04560
Cu2154     Cu  0.75066783  0.02459732  0.25241979     1.04330
C2155       C  0.76689446  0.05314424  0.31596432     0.93540
C2156       C  0.73294955  0.05173823  0.18756952     0.92680
C2157       C  0.68557627  0.04996500  0.26898469     0.84830
C2158       C  0.81508402  0.05340354  0.23628215     0.91100
C2159       C  0.65185998  0.44786511  0.21776257     0.03420
C2160       C  0.64571887  0.41817211  0.20265036    -0.12730
C2161       C  0.61963385  0.41449164  0.18198401     0.00920
C2162       C  0.59528003  0.43733079  0.17989118    -0.11260
C2163       C  0.59755607  0.46641122  0.19676002     0.03410
C2164       C  0.62730321  0.47306852  0.21443445    -0.10680
H2165       H  0.66390395  0.39895946  0.20257928     0.09000
H2166       H  0.57466230  0.43254841  0.16406482     0.06530
H2167       H  0.63154482  0.99728467  0.22365024     0.06380
C2168       C  0.95090147  0.34807575  0.21613096     0.03420
C2169       C  0.92292625  0.35296609  0.19834933    -0.12730
C2170       C  0.92013766  0.37928106  0.17803941     0.00920
C2171       C  0.94138349  0.40512906  0.17852544    -0.11260
C2172       C  0.96879460  0.40421837  0.19764498     0.03410
C2173       C  0.97546281  0.37390015  0.21477563    -0.10680
H2174       H  0.90432946  0.33416430  0.19680850     0.09000
H2175       H  0.93657300  0.42602640  0.16301820     0.06530
H2176       H  0.49947101  0.37005967  0.22419002     0.06380
C2177       C  0.90439852  0.03582596  0.20130115     0.03420
C2178       C  0.87824465  0.03608531  0.22557460    -0.12730
C2179       C  0.84846635  0.05459925  0.22003912     0.00920
C2180       C  0.84844861  0.07555534  0.19401238    -0.11260
C2181       C  0.87418544  0.07654405  0.17263185     0.03410
C2182       C  0.90058672  0.05619045  0.17485627    -0.10680
H2183       H  0.88159159  0.52481881  0.24880692     0.09000
H2184       H  0.82766248  0.09132916  0.18962788     0.06530
H2185       H  0.91948801  0.05828080  0.15649630     0.06380
C2186       C  0.55356595  0.15440670  0.21506677     0.03420
C2187       C  0.57121651  0.15637292  0.18654828    -0.12730
C2188       C  0.56992280  0.13136697  0.16426010     0.00920
C2189       C  0.54910079  0.10527199  0.16766858    -0.11260
C2190       C  0.53354242  0.09953569  0.19698471     0.03410
C2191       C  0.53635601  0.12445140  0.22185400    -0.10680
H2192       H  0.58700895  0.17712905  0.18188853     0.09000
H2193       H  0.54950254  0.08670403  0.14877955     0.06530
H2194       H  0.02741692  0.12034807  0.24598493     0.06380
O2195       O  0.55092562  0.49129455  0.17049287    -0.72660
O2196       O  0.95183743  0.01181855  0.17418270    -0.73640
O2197       O  0.51130596  0.05040423  0.17301131    -0.62260
O2198       O  0.99185672  0.45185773  0.17124916    -0.70670
O2199       O  0.98762643  0.45353519  0.22415539    -0.70220
O2200       O  0.51942065  0.04954820  0.22555962    -0.61470
O2201       O  0.95499833  0.01807783  0.22668300    -0.73980
O2202       O  0.55010651  0.48626044  0.22344482    -0.72760
Cu2203     Cu  0.00142070  0.00142411  0.17030283     1.04560
Cu2204     Cu  0.00304639  0.50182829  0.22581368     1.04330
C2205       C  0.56587119  0.48455688  0.19708109     0.93540
C2206       C  0.93794173  0.01969257  0.20123616     0.92680
C2207       C  0.51966427  0.06542414  0.19920088     0.84830
C2208       C  0.98591879  0.43699141  0.19806271     0.91100
C2209       C  0.87331203  0.10009801  0.14766647     0.03420
C2210       C  0.84734587  0.09977796  0.12666754    -0.12730
C2211       C  0.84445671  0.12475664  0.10469012     0.00920
C2212       C  0.86718605  0.14969477  0.10283101    -0.11260
C2213       C  0.89294792  0.14939465  0.12418660     0.03410
C2214       C  0.89642856  0.12465876  0.14681701    -0.10680
H2215       H  0.82932206  0.08038728  0.12763671     0.09000
H2216       H  0.86505417  0.16884710  0.08475687     0.06530
H2217       H  0.91654925  0.12481869  0.16388488     0.06380
C2218       C  0.89727842  0.37746045  0.15260532     0.03420
C2219       C  0.89889826  0.35167386  0.13071946    -0.12730
C2220       C  0.87645049  0.35036041  0.10591209     0.00920
C2221       C  0.85316255  0.37454964  0.10237902    -0.11260
C2222       C  0.85259315  0.39993076  0.12457877     0.03410
C2223       C  0.87458898  0.40182145  0.14964856    -0.10680
H2224       H  0.91737389  0.33289359  0.13299015     0.09000
H2225       H  0.83538806  0.37337763  0.08291305     0.06530
H2226       H  0.87357916  0.42170954  0.16714535     0.06380
C2227       C  0.65178742  0.37739426  0.10752309     0.03420
C2228       C  0.63033368  0.35168033  0.10229056    -0.12730
C2229       C  0.60565396  0.34653771  0.12442734     0.00920
C2230       C  0.60148770  0.36719771  0.15100113    -0.11260
C2231       C  0.62327955  0.39237691  0.15557102     0.03410
C2232       C  0.64837130  0.39801104  0.13371441    -0.10680
H2233       H  0.63330510  0.33541292  0.08162283     0.09000
H2234       H  0.58168688  0.36353985  0.16809559     0.06530
H2235       H  0.66526352  0.41810260  0.13722951     0.06380
C2236       C  0.64759128  0.40268056  0.37332789     0.03420
C2237       C  0.62427593  0.40026033  0.34963917    -0.12730
C2238       C  0.60177075  0.37557693  0.35195923     0.00920
C2239       C  0.60235316  0.35325623  0.37707132    -0.11260
C2240       C  0.62620936  0.35625495  0.40062642     0.03410
C2241       C  0.64922066  0.38072178  0.39892916    -0.10680
H2242       H  0.62327651  0.41779805  0.32988450     0.09000
H2243       H  0.58427548  0.33396194  0.37839806     0.06530
H2244       H  0.66806156  0.38273386  0.41728616     0.06380
C2245       C  0.65284677  0.12312418  0.39243180     0.03420
C2246       C  0.63102499  0.14845448  0.39783665    -0.12730
C2247       C  0.60518416  0.15211074  0.37686992     0.00920
C2248       C  0.60029782  0.13053100  0.35119321    -0.11260
C2249       C  0.62240992  0.10568446  0.34639750     0.03410
C2250       C  0.64857824  0.10138652  0.36724172    -0.10680
H2251       H  0.63440360  0.16542087  0.41786841     0.09000
H2252       H  0.57987484  0.13344761  0.33475816     0.06530
H2253       H  0.66569223  0.08151772  0.36364935     0.06380
C2254       C  0.90397246  0.12582003  0.35349264     0.03420
C2255       C  0.90108750  0.15033153  0.37614812    -0.12730
C2256       C  0.87584586  0.14878789  0.39810766     0.00920
C2257       C  0.85347876  0.12354334  0.39746617    -0.11260
C2258       C  0.85696822  0.09932770  0.37412516     0.03410
C2259       C  0.88192829  0.10027063  0.35184170    -0.10680
H2260       H  0.91863034  0.17016062  0.37700886     0.09000
H2261       H  0.83384853  0.12255320  0.41512253     0.06530
H2262       H  0.88406515  0.08147658  0.33330007     0.06380
C2263       C  0.84596576  0.37552200  0.39624186     0.03420
C2264       C  0.86844907  0.35036148  0.39757517    -0.12730
C2265       C  0.89290219  0.34949839  0.37463025     0.00920
C2266       C  0.89528072  0.37342388  0.35097527    -0.11260
C2267       C  0.87236991  0.39816249  0.35065266     0.03410
C2268       C  0.84767565  0.39956210  0.37312853    -0.10680
H2269       H  0.86699287  0.33179661  0.41631954     0.09000
H2270       H  0.91457724  0.37271420  0.33294325     0.06530
H2271       H  0.82976607  0.41904587  0.37246233     0.06380
C2272       C  0.64346486  0.09709200  0.12712566     0.03420
C2273       C  0.64819201  0.11767631  0.10063415    -0.12730
C2274       C  0.62631568  0.14266250  0.09545192     0.00920
C2275       C  0.60060331  0.14807325  0.11673458    -0.11260
C2276       C  0.59660054  0.12734960  0.14270583     0.03410
C2277       C  0.61816273  0.10197235  0.14850982    -0.10680
H2278       H  0.66831202  0.11390936  0.08393245     0.09000
H2279       H  0.58364590  0.16800330  0.11291041     0.06530
H2280       H  0.61482372  0.08573538  0.16908057     0.06380
O2281       O  0.57907814  0.20101180  0.74051294    -0.72660
O2282       O  0.57533636  0.29897443  0.76229132    -0.73640
O2283       O  0.57614253  0.23933278  0.80047914    -0.62260
O2284       O  0.57685671  0.26090397  0.70198789    -0.70670
O2285       O  0.52417255  0.26601107  0.70304920    -0.70220
O2286       O  0.52360906  0.23148816  0.79893541    -0.61470
O2287       O  0.52269790  0.29591579  0.76856965    -0.73980
O2288       O  0.52618272  0.20178873  0.73465191    -0.72760
Cu2289     Cu  0.57876134  0.25013731  0.75135421     1.04560
Cu2290     Cu  0.52355322  0.24876753  0.75127555     1.04330
C2291       C  0.55265938  0.18609530  0.73315511     0.93540
C2292       C  0.54838508  0.31263738  0.77038638     0.92680
C2293       C  0.54972882  0.23101111  0.81525112     0.84830
C2294       C  0.55033636  0.26792177  0.68681890     0.91100
O2295       O  0.70048454  0.42325503  0.74010108    -0.72660
O2296       O  0.79895296  0.41965572  0.75596088    -0.73640
O2297       O  0.74158422  0.42208504  0.79818919    -0.62260
O2298       O  0.75744175  0.42081477  0.69854884    -0.70670
O2299       O  0.76489423  0.47382329  0.69912331    -0.70220
O2300       O  0.73627850  0.47508982  0.79573793    -0.61470
O2301       O  0.79889092  0.47282472  0.76147052    -0.73980
O2302       O  0.70244514  0.47600489  0.73202739    -0.72760
Cu2303     Cu  0.74954196  0.41963062  0.74820014     1.04560
Cu2304     Cu  0.75071330  0.47562393  0.74711658     1.04330
C2305       C  0.68599869  0.44977923  0.73178893     0.93540
C2306       C  0.81447487  0.44607973  0.76244830     0.92680
C2307       C  0.73522455  0.44920922  0.81271995     0.84830
C2308       C  0.76464601  0.44721241  0.68325489     0.91100
O2309       O  0.92327480  0.23928451  0.69985806    -0.72660
O2310       O  0.92290477  0.26069500  0.79748554    -0.73640
O2311       O  0.92492269  0.29939598  0.73834093    -0.62260
O2312       O  0.92208653  0.20017318  0.75834680    -0.70670
O2313       O  0.97485326  0.20162852  0.76434911    -0.70220
O2314       O  0.97740274  0.29697020  0.73118428    -0.61470
O2315       O  0.97560671  0.26655072  0.79610714    -0.73980
O2316       O  0.97592598  0.23168342  0.70119677    -0.72760
Cu2317     Cu  0.92138264  0.24995478  0.74849104     1.04560
Cu2318     Cu  0.97656710  0.24921316  0.74823662     1.04330
C2319       C  0.94956854  0.23046136  0.68540240     0.93540
C2320       C  0.94935879  0.26866811  0.81213950     0.92680
C2321       C  0.95170090  0.31380640  0.73049891     0.84590
C2322       C  0.94876015  0.18516880  0.76492449     0.91100
O2323       O  0.79765191  0.26318855  0.57627618    -0.72660
O2324       O  0.69919329  0.24097485  0.57859798    -0.73640
O2325       O  0.75904147  0.20305172  0.57648587    -0.62260
O2326       O  0.73789429  0.30091324  0.57763357    -0.70670
O2327       O  0.73073773  0.30034066  0.52500043    -0.70220
O2328       O  0.76482943  0.20500040  0.52387375    -0.61470
O2329       O  0.70081386  0.23609861  0.52570239    -0.73980
O2330       O  0.79583352  0.27020419  0.52374119    -0.72760
Cu2331     Cu  0.74850456  0.25206767  0.57914098     1.04560
Cu2332     Cu  0.74803977  0.25297289  0.52392594     1.04330
C2333       C  0.81217790  0.27145838  0.54976961     0.93540
C2334       C  0.68463934  0.23392966  0.55186841     0.92680
C2335       C  0.76639690  0.18847999  0.54972789     0.84830
C2336       C  0.72987518  0.31604538  0.55148465     0.91100
C2337       C  0.65291000  0.21535068  0.55201645     0.03420
C2338       C  0.65501501  0.18654153  0.56934618    -0.12730
C2339       C  0.62997516  0.16424114  0.56855447     0.00920
C2340       C  0.60356887  0.16782144  0.54824285    -0.11260
C2341       C  0.59754773  0.19720182  0.53267059     0.03410
C2342       C  0.62263944  0.22214792  0.53518024    -0.10680
H2343       H  0.67586897  0.18179903  0.58482491     0.09000
H2344       H  0.58509452  0.14888078  0.54897071     0.06530
H2345       H  0.61828168  0.24637592  0.02627009     0.06380
C2346       C  0.53411541  0.19791712  0.90539352     0.03420
C2347       C  0.52719222  0.21504578  0.87528494    -0.12730
C2348       C  0.55147812  0.21668078  0.84945337     0.00920
C2349       C  0.58000559  0.19951592  0.85436913    -0.11260
C2350       C  0.58340268  0.17891096  0.88054177     0.03410
C2351       C  0.56208154  0.17912874  0.90640302    -0.10680
H2352       H  0.00319251  0.22456392  0.87171468     0.09000
H2353       H  0.59832735  0.19818273  0.83536047     0.06530
H2354       H  0.56694410  0.16342920  0.92707715     0.06380
C2355       C  0.96490536  0.19516083  0.59734623     0.03420
C2356       C  0.97125375  0.21355903  0.62656005    -0.12730
C2357       C  0.94759828  0.21419002  0.65259072     0.00920
C2358       C  0.92033337  0.19460395  0.64931461    -0.11260
C2359       C  0.91677053  0.17441592  0.62277889     0.03410
C2360       C  0.93780208  0.17517712  0.59673402    -0.10680
H2361       H  0.49440457  0.22515544  0.62933507     0.09000
H2362       H  0.90268940  0.19267046  0.66890344     0.06530
H2363       H  0.93293140  0.15965698  0.57584042     0.06380
O2364       O  0.54698821  0.22538368  0.51778800    -0.72660
O2365       O  0.95041830  0.22321465  0.98752533    -0.73640
O2366       O  0.98366120  0.22331582  0.54982703    -0.62260
O2367       O  0.51376022  0.22427526  0.95409363    -0.70670
O2368       O  0.50939592  0.17104810  0.95189735    -0.70220
O2369       O  0.98927747  0.17003221  0.55023068    -0.61470
O2370       O  0.94991779  0.16996991  0.99185432    -0.73980
O2371       O  0.54828712  0.17236977  0.51119377    -0.72760
Cu2372     Cu  0.99868762  0.22519763  0.00231882     1.04560
Cu2373     Cu  0.99929612  0.16904116  0.00128990     1.04330
C2374       C  0.56315541  0.19900213  0.51883676     0.93540
C2375       C  0.93452137  0.19663898  0.98597230     0.92680
C2376       C  0.98216867  0.19657369  0.56527738     0.84830
C2377       C  0.51604511  0.19808598  0.93756877     0.91100
C2378       C  0.90236172  0.30433748  0.53385132     0.03420
C2379       C  0.87203323  0.28741329  0.52707321    -0.12730
C2380       C  0.84601426  0.28668753  0.55117304     0.00920
C2381       C  0.85052377  0.30524069  0.57899203    -0.11260
C2382       C  0.87767795  0.32459830  0.58271727     0.03410
C2383       C  0.90367628  0.32332101  0.56163346    -0.10680
H2384       H  0.86823354  0.27735617  0.00325288     0.09000
H2385       H  0.83122862  0.30749142  0.59691665     0.06530
H2386       H  0.92496409  0.33820172  0.56673883     0.06380
C2387       C  0.96447728  0.30328556  0.90174675     0.03420
C2388       C  0.97114612  0.28524059  0.87202733    -0.12730
C2389       C  0.94773835  0.28485983  0.84550684     0.00920
C2390       C  0.92055805  0.30452979  0.84898400    -0.11260
C2391       C  0.91673669  0.32440370  0.87577970     0.03410
C2392       C  0.93737423  0.32321948  0.90211110    -0.10680
H2393       H  0.49444305  0.27385623  0.86914791     0.09000
H2394       H  0.90303929  0.30672697  0.82937321     0.06530
H2395       H  0.93223086  0.33854873  0.92308700     0.06380
C2396       C  0.53456587  0.30082915  0.59572656     0.03420
C2397       C  0.52751047  0.28383241  0.62618068    -0.12730
C2398       C  0.55183621  0.28208363  0.65215913     0.00920
C2399       C  0.58053509  0.29890521  0.64680335    -0.11260
C2400       C  0.58396340  0.31959333  0.62065127     0.03410
C2401       C  0.56267644  0.31943848  0.59478789    -0.10680
H2402       H  0.00341957  0.27462013  0.63007940     0.09000
H2403       H  0.59904929  0.30009781  0.66556930     0.06530
H2404       H  0.56766201  0.33517343  0.57415315     0.06380
O2405       O  0.95010340  0.33002319  0.51017463    -0.72660
O2406       O  0.54805454  0.32693852  0.98772218    -0.73640
O2407       O  0.98802779  0.32894478  0.94969260    -0.62260
O2408       O  0.51060373  0.32822037  0.54860382    -0.70670
O2409       O  0.51368562  0.27497203  0.54656167    -0.70220
O2410       O  0.98314326  0.27565866  0.95019683    -0.61470
O2411       O  0.54650016  0.27377916  0.98230609    -0.73980
O2412       O  0.95028731  0.27668696  0.51350233    -0.72760
Cu2413     Cu  0.99917948  0.33039016  0.99904491     1.04560
Cu2414     Cu  0.99834474  0.27420866  0.49816619     1.04330
C2415       C  0.93472942  0.30336579  0.51618081     0.93540
C2416       C  0.56263725  0.30012863  0.98023030     0.92680
C2417       C  0.98140773  0.30225904  0.93445837     0.84830
C2418       C  0.51660061  0.30107609  0.56316079     0.91100
C2419       C  0.90129874  0.19530072  0.96995668     0.03420
C2420       C  0.87203875  0.21443379  0.97545323    -0.12730
C2421       C  0.84534572  0.21361344  0.95208309     0.00920
C2422       C  0.84830935  0.19221310  0.92620605    -0.11260
C2423       C  0.87483316  0.17205472  0.92353743     0.03410
C2424       C  0.90089369  0.17357740  0.94439328    -0.10680
H2425       H  0.86971473  0.22752751  0.49783561     0.09000
H2426       H  0.82894354  0.18965255  0.90843692     0.06530
H2427       H  0.92166515  0.15780728  0.93980082     0.06380
C2428       C  0.59626652  0.30158331  0.96470375     0.03420
C2429       C  0.62258654  0.27787389  0.96458121    -0.12730
C2430       C  0.65234921  0.28424669  0.94665220     0.00920
C2431       C  0.65330567  0.31159842  0.92709773    -0.11260
C2432       C  0.62738093  0.33279751  0.92606802     0.03410
C2433       C  0.60034258  0.32908324  0.94554852    -0.10680
H2434       H  0.61973442  0.25478542  0.47639225     0.09000
H2435       H  0.67439843  0.31645352  0.91190399     0.06530
H2436       H  0.58092819  0.34689216  0.94322904     0.06380
O2437       O  0.79853266  0.23827174  0.92548520    -0.72660
O2438       O  0.70004404  0.25983353  0.92151688    -0.73640
O2439       O  0.75966259  0.29824779  0.92430799    -0.62260
O2440       O  0.73884160  0.20033832  0.92323006    -0.70670
O2441       O  0.73044092  0.20115672  0.97574471    -0.70220
O2442       O  0.76452602  0.29658073  0.97699825    -0.61470
O2443       O  0.70027678  0.26531725  0.97439186    -0.73980
O2444       O  0.79523758  0.23176602  0.97800336    -0.72760
Cu2445     Cu  0.74936630  0.24917232  0.92173972     1.04560
Cu2446     Cu  0.74756359  0.24867985  0.97693875     1.04330
C2447       C  0.81224867  0.23019270  0.95242843     0.93540
C2448       C  0.68472455  0.26689523  0.94786570     0.92680
C2449       C  0.76660685  0.31295736  0.95108567     0.84830
C2450       C  0.73017316  0.18534228  0.94926775     0.91100
C2451       C  0.79999856  0.09842652  0.53284614     0.03420
C2452       C  0.78229613  0.12846033  0.52633612    -0.12730
C2453       C  0.78118891  0.15445397  0.55066130     0.00920
C2454       C  0.79924032  0.14985595  0.57854125    -0.11260
C2455       C  0.81928448  0.12335284  0.58158288     0.03410
C2456       C  0.81905555  0.09759533  0.56022148    -0.10680
H2457       H  0.77194386  0.13200424  0.00273342     0.09000
H2458       H  0.80090260  0.16879399  0.59700125     0.06530
H2459       H  0.83462184  0.07670038  0.56502208     0.06380
C2460       C  0.78176481  0.34685214  0.95013439     0.03420
C2461       C  0.80070240  0.35082093  0.92273041    -0.12730
C2462       C  0.82109465  0.37709172  0.91976210     0.00920
C2463       C  0.82048517  0.40327248  0.94062052    -0.11260
C2464       C  0.80045805  0.40312372  0.96742195     0.03410
C2465       C  0.78241350  0.37327160  0.97401175    -0.10680
H2466       H  0.80254865  0.33163937  0.90452682     0.09000
H2467       H  0.83622995  0.42403039  0.93572765     0.06530
H2468       H  0.77158217  0.37021094  0.49745895     0.06380
C2469       C  0.78032976  0.44533502  0.65016046     0.03420
C2470       C  0.80569462  0.42347477  0.64950515    -0.12730
C2471       C  0.82707830  0.42286583  0.62377206     0.00920
C2472       C  0.82499855  0.44394480  0.59799290    -0.11260
C2473       C  0.79905420  0.46521382  0.59539991     0.03410
C2474       C  0.77527387  0.46514217  0.62155960    -0.10680
H2475       H  0.80990771  0.40723404  0.66994055     0.09000
H2476       H  0.84313346  0.44212436  0.57883686     0.06530
H2477       H  0.75281906  0.97794414  0.61920135     0.06380
O2478       O  0.77366103  0.04888848  0.51530112    -0.72660
O2479       O  0.77368630  0.45300832  0.98376057    -0.73640
O2480       O  0.77262662  0.48418938  0.54649919    -0.62260
O2481       O  0.77401727  0.01811348  0.95215189    -0.70670
O2482       O  0.82672450  0.01113836  0.95117588    -0.70220
O2483       O  0.82532815  0.49072207  0.54913847    -0.61470
O2484       O  0.82637523  0.45109545  0.99067588    -0.73980
O2485       O  0.82646978  0.05076194  0.50960955    -0.72760
Cu2486     Cu  0.77276539  0.00107461  0.49937732     1.04560
Cu2487     Cu  0.82816175  0.00095039  0.00017320     1.04330
C2488       C  0.79963183  0.06555413  0.51606773     0.93540
C2489       C  0.79966930  0.43629513  0.98368568     0.92680
C2490       C  0.79847907  0.48238676  0.56295278     0.84830
C2491       C  0.80043896  0.01955834  0.93645444     0.91100
C2492       C  0.71573584  0.35004389  0.55372406     0.03420
C2493       C  0.71348269  0.37527484  0.52918562    -0.12730
C2494       C  0.69659183  0.40539150  0.53618061     0.00920
C2495       C  0.67810967  0.40690050  0.56426470    -0.11260
C2496       C  0.67843324  0.38131355  0.58588244     0.03410
C2497       C  0.69930127  0.35529740  0.58260664    -0.10680
H2498       H  0.72220364  0.37114377  0.00494329     0.09000
H2499       H  0.66238934  0.42768227  0.56900183     0.06530
H2500       H  0.69845347  0.33649539  0.60117267     0.06380
C2501       C  0.71602194  0.15136141  0.94678835     0.03420
C2502       C  0.69993361  0.14606173  0.91770334    -0.12730
C2503       C  0.67959449  0.11962355  0.91397009     0.00920
C2504       C  0.67925819  0.09405912  0.93560445    -0.11260
C2505       C  0.69694086  0.09594258  0.96409766     0.03410
C2506       C  0.71360589  0.12612273  0.97127636    -0.10680
H2507       H  0.69902836  0.16499542  0.89928323     0.09000
H2508       H  0.66386513  0.07305338  0.93067648     0.06530
H2509       H  0.72227251  0.13023414  0.49553210     0.06380
C2510       C  0.71830341  0.44906065  0.84574343     0.03420
C2511       C  0.69149268  0.42890365  0.84545024    -0.12730
C2512       C  0.67047000  0.42820434  0.87141335     0.00920
C2513       C  0.67275684  0.44911335  0.89735723    -0.11260
C2514       C  0.70010192  0.46803567  0.90184822     0.03410
C2515       C  0.72449336  0.46713827  0.87576099    -0.10680
H2516       H  0.68687040  0.41286893  0.82487380     0.09000
H2517       H  0.65425956  0.44732052  0.91617050     0.06530
H2518       H  0.74811947  0.97756528  0.87921358     0.06380
O2519       O  0.72604331  0.48389246  0.95304777    -0.72660
O2520       O  0.72444453  0.01818354  0.54850903    -0.73640
O2521       O  0.72379264  0.45348549  0.51704507    -0.62260
O2522       O  0.72369640  0.04820796  0.98413330    -0.70670
O2523       O  0.67078045  0.04987125  0.98955574    -0.70220
O2524       O  0.67099883  0.45158276  0.51037432    -0.61470
O2525       O  0.67181187  0.01134072  0.54948908    -0.73980
O2526       O  0.67347345  0.49036070  0.95039989    -0.72760
Cu2527     Cu  0.72522675  0.50096803  0.00072778     1.04560
Cu2528     Cu  0.66983260  0.50078127  0.99992186     1.04330
C2529       C  0.70045916  0.48284221  0.93607801     0.93540
C2530       C  0.69823122  0.01906584  0.56466021     0.92680
C2531       C  0.69753462  0.43720596  0.51817338     0.84830
C2532       C  0.69745681  0.06432722  0.98232757     0.91100
C2533       C  0.84727580  0.44427283  0.77878733     0.03420
C2534       C  0.84720680  0.42281786  0.80449711    -0.12730
C2535       C  0.87295305  0.42173025  0.82575069     0.00920
C2536       C  0.89900519  0.44256077  0.82380646    -0.11260
C2537       C  0.90235133  0.46340276  0.79768062     0.03410
C2538       C  0.87651617  0.46322787  0.77351007    -0.10680
H2539       H  0.82645686  0.40692205  0.80875566     0.09000
H2540       H  0.91800121  0.44055011  0.84203642     0.06530
H2541       H  0.87950346  0.97507064  0.75054822     0.06380
C2542       C  0.96735905  0.09635590  0.79919607     0.03420
C2543       C  0.94942373  0.10120951  0.82720395    -0.12730
C2544       C  0.92907136  0.12751657  0.83025088     0.00920
C2545       C  0.92889768  0.15302607  0.80875749    -0.11260
C2546       C  0.94816364  0.15223338  0.78143613     0.03410
C2547       C  0.96622079  0.12230254  0.77492633    -0.10680
H2548       H  0.94797032  0.08250026  0.84582816     0.09000
H2549       H  0.91309349  0.17376923  0.81355527     0.06530
H2550       H  0.47701487  0.11891362  0.75141089     0.06380
C2551       C  0.53014045  0.40058381  0.80576343     0.03420
C2552       C  0.52496421  0.37144230  0.78665571    -0.12730
C2553       C  0.54868519  0.34528136  0.78719102     0.00920
C2554       C  0.57440364  0.34822021  0.80852601    -0.11260
C2555       C  0.57642869  0.37452239  0.82906652     0.03410
C2556       C  0.55532273  0.40046130  0.82773386    -0.10680
H2557       H  0.00255019  0.36878075  0.77385040     0.09000
H2558       H  0.59243702  0.32897439  0.81078080     0.06530
H2559       H  0.55955867  0.42137658  0.84349834     0.06380
O2560       O  0.95246947  0.48033993  0.77192860    -0.72660
O2561       O  0.54735377  0.01258395  0.77601271    -0.73640
O2562       O  0.51497573  0.44897277  0.77644049    -0.62260
O2563       O  0.98387500  0.04532193  0.77260022    -0.70670
O2564       O  0.98885112  0.04776040  0.82522967    -0.70220
O2565       O  0.50702095  0.44933539  0.82911202    -0.61470
O2566       O  0.54788905  0.00853081  0.82894116    -0.73980
O2567       O  0.94876373  0.48859445  0.82435726    -0.72760
Cu2568     Cu  0.99976880  0.49676549  0.77338431     1.04560
Cu2569     Cu  0.99803309  0.49862697  0.82881051     1.04330
C2570       C  0.93532581  0.47978915  0.79741000     0.93540
C2571       C  0.56314956  0.01489321  0.80234169     0.92680
C2572       C  0.51453080  0.43358422  0.80316939     0.84830
C2573       C  0.98204081  0.06216534  0.79835096     0.91100
C2574       C  0.78445022  0.05443677  0.84804850     0.03420
C2575       C  0.77790974  0.03688403  0.87779809    -0.12730
C2576       C  0.80227376  0.03525887  0.90322499     0.00920
C2577       C  0.83017926  0.05370755  0.89902801    -0.11260
C2578       C  0.83356337  0.07391755  0.87255694     0.03410
C2579       C  0.81214785  0.07349807  0.84685639    -0.10680
H2580       H  0.75399571  0.52714770  0.88163376     0.09000
H2581       H  0.84831504  0.05526394  0.91814431     0.06530
H2582       H  0.81701756  0.08884713  0.82589401     0.06380
C2583       C  0.71457635  0.05176840  0.65538826     0.03420
C2584       C  0.68631127  0.07008332  0.65684737    -0.12730
C2585       C  0.66471460  0.06994853  0.63122733     0.00920
C2586       C  0.66771890  0.04886435  0.60527787    -0.11260
C2587       C  0.69668388  0.03279391  0.59936288     0.03410
C2588       C  0.72152669  0.03527292  0.62471304    -0.10680
H2589       H  0.68153631  0.08586673  0.67755878     0.09000
H2590       H  0.64888419  0.04963735  0.58681031     0.06530
H2591       H  0.74597428  0.52735198  0.62016859     0.06380
C2592       C  0.59543733  0.03288654  0.80266004     0.03420
C2593       C  0.62550037  0.02644445  0.78490332    -0.12730
C2594       C  0.65093325  0.05130502  0.78287627     0.00920
C2595       C  0.64501901  0.08037044  0.79910716    -0.11260
C2596       C  0.61889045  0.08358855  0.81988279     0.03410
C2597       C  0.59391382  0.06124141  0.82088459    -0.10680
H2598       H  0.62924529  0.50256890  0.77471132     0.09000
H2599       H  0.66338126  0.09942749  0.79982744     0.06530
H2600       H  0.57332997  0.06587109  0.83683115     0.06380
O2601       O  0.75964259  0.07968229  0.80105576    -0.72660
O2602       O  0.73948917  0.07876945  0.70212362    -0.73640
O2603       O  0.70032650  0.07677592  0.76162172    -0.62260
O2604       O  0.79947240  0.08004027  0.74221899    -0.70670
O2605       O  0.79910394  0.02687045  0.73764600    -0.70220
O2606       O  0.70214575  0.02384925  0.76796218    -0.61470
O2607       O  0.73546991  0.02558151  0.70405049    -0.73980
O2608       O  0.76566638  0.02652462  0.80017346    -0.72760
Cu2609     Cu  0.74967428  0.08064991  0.75175260     1.04560
Cu2610     Cu  0.75066112  0.02459939  0.75243546     1.04330
C2611       C  0.76688995  0.05315437  0.81597544     0.93540
C2612       C  0.73294779  0.05173364  0.68757994     0.92680
C2613       C  0.68556962  0.04996823  0.76899536     0.84830
C2614       C  0.81507754  0.05340533  0.73629894     0.91100
C2615       C  0.65187399  0.44786229  0.71775804     0.03420
C2616       C  0.64573693  0.41817295  0.70263733    -0.12730
C2617       C  0.61965032  0.41449328  0.68197250     0.00920
C2618       C  0.59529341  0.43733000  0.67988655    -0.11260
C2619       C  0.59756606  0.46640633  0.69676325     0.03410
C2620       C  0.62731312  0.47306285  0.71443840    -0.10680
H2621       H  0.66392443  0.39896262  0.70256160     0.09000
H2622       H  0.57467505  0.43254856  0.66406075     0.06530
H2623       H  0.63153476  0.99728608  0.72366386     0.06380
C2624       C  0.95090838  0.34806331  0.71611839     0.03420
C2625       C  0.92292931  0.35296261  0.69834463    -0.12730
C2626       C  0.92013588  0.37928871  0.67805020     0.00920
C2627       C  0.94137730  0.40513982  0.67855221    -0.11260
C2628       C  0.96879653  0.40421600  0.69766021     0.03410
C2629       C  0.97547122  0.37388570  0.71476766    -0.10680
H2630       H  0.90433406  0.33416017  0.69679420     0.09000
H2631       H  0.93656225  0.42604627  0.66305852     0.06530
H2632       H  0.49946608  0.37005995  0.72420214     0.06380
C2633       C  0.90439260  0.03582044  0.70132692     0.03420
C2634       C  0.87823815  0.03608526  0.72559950    -0.12730
C2635       C  0.84846025  0.05459798  0.72005814     0.00920
C2636       C  0.84844296  0.07554780  0.69402639    -0.11260
C2637       C  0.87417986  0.07653029  0.67264623     0.03410
C2638       C  0.90058051  0.05617725  0.67487647    -0.10680
H2639       H  0.88158759  0.52481492  0.74882125     0.09000
H2640       H  0.82765732  0.09132106  0.68963757     0.06530
H2641       H  0.91948159  0.05826327  0.65651580     0.06380
C2642       C  0.55356091  0.15441056  0.71507047     0.03420
C2643       C  0.57121482  0.15637429  0.68655439    -0.12730
C2644       C  0.56992634  0.13136529  0.66426950     0.00920
C2645       C  0.54910297  0.10527115  0.66767645    -0.11260
C2646       C  0.53353948  0.09953785  0.69699039     0.03410
C2647       C  0.53635127  0.12445526  0.72185854    -0.10680
H2648       H  0.58700755  0.17713034  0.68189504     0.09000
H2649       H  0.54950716  0.08670173  0.64878892     0.06530
H2650       H  0.02738293  0.12035848  0.74605952     0.06380
O2651       O  0.55093398  0.49128975  0.67049949    -0.72660
O2652       O  0.95183531  0.01181937  0.67421240    -0.73640
O2653       O  0.51130073  0.05040757  0.67301599    -0.62260
O2654       O  0.99185851  0.45185453  0.67126647    -0.70670
O2655       O  0.98764216  0.45352713  0.72417498    -0.70220
O2656       O  0.51941410  0.04955083  0.72556442    -0.61470
O2657       O  0.95498938  0.01806755  0.72671346    -0.73980
O2658       O  0.55011488  0.48625178  0.72345120    -0.72760
Cu2659     Cu  0.00141814  0.00143279  0.67033833     1.04560
Cu2660     Cu  0.00305531  0.50182413  0.72582794     1.04330
C2661       C  0.56587965  0.48455010  0.69708712     0.93540
C2662       C  0.93793608  0.01968806  0.70126504     0.92680
C2663       C  0.51965902  0.06542703  0.69920591     0.84830
C2664       C  0.98592705  0.43698591  0.69808026     0.91100
C2665       C  0.87331027  0.10007877  0.64767612     0.03420
C2666       C  0.84734465  0.09975882  0.62667646    -0.12730
C2667       C  0.84446347  0.12473141  0.60469164     0.00920
C2668       C  0.86720081  0.14966197  0.60282498    -0.11260
C2669       C  0.89296279  0.14936134  0.62418077     0.03410
C2670       C  0.89643453  0.12463215  0.64681935    -0.10680
H2671       H  0.82931561  0.08037333  0.62765058     0.09000
H2672       H  0.86507352  0.16881035  0.58474613     0.06530
H2673       H  0.91655434  0.12479181  0.66388826     0.06380
C2674       C  0.89728776  0.37747219  0.65260514     0.03420
C2675       C  0.89892600  0.35169707  0.63070665    -0.12730
C2676       C  0.87648986  0.35038839  0.60588797     0.00920
C2677       C  0.85319595  0.37457178  0.60235628    -0.11260
C2678       C  0.85260792  0.39994110  0.62456899     0.03410
C2679       C  0.87459261  0.40182727  0.64964912    -0.10680
H2680       H  0.91740458  0.33291987  0.63297855     0.09000
H2681       H  0.83542885  0.37340212  0.58288344     0.06530
H2682       H  0.87356962  0.42170714  0.66715437     0.06380
C2683       C  0.65180280  0.37737346  0.60752129     0.03420
C2684       C  0.63034122  0.35166643  0.60228815    -0.12730
C2685       C  0.60565264  0.34653897  0.62441895     0.00920
C2686       C  0.60148875  0.36720465  0.65098886    -0.11260
C2687       C  0.62329068  0.39237492  0.65556111     0.03410
C2688       C  0.64838888  0.39799556  0.63370889    -0.10680
H2689       H  0.63331098  0.33539490  0.58162344     0.09000
H2690       H  0.58168324  0.36355635  0.66807994     0.06530
H2691       H  0.66528701  0.41808223  0.63722346     0.06380
C2692       C  0.64760737  0.40265982  0.87332602     0.03420
C2693       C  0.62428298  0.40024422  0.84964538    -0.12730
C2694       C  0.60177117  0.37556749  0.85197578     0.00920
C2695       C  0.60235639  0.35324911  0.87708926    -0.11260
C2696       C  0.62622180  0.35624328  0.90063562     0.03410
C2697       C  0.64923986  0.38070272  0.89892825    -0.10680
H2698       H  0.62328104  0.41778108  0.82989021     0.09000
H2699       H  0.58427440  0.33395935  0.87842327     0.06530
H2700       H  0.66808636  0.38271244  0.91727982     0.06380
C2701       C  0.65282106  0.12312640  0.89244193     0.03420
C2702       C  0.63099826  0.14845585  0.89784677    -0.12730
C2703       C  0.60516093  0.15211486  0.87687579     0.00920
C2704       C  0.60027992  0.13053894  0.85119455    -0.11260
C2705       C  0.62239380  0.10569391  0.84639834     0.03410
C2706       C  0.64855811  0.10139334  0.86724691    -0.10680
H2707       H  0.63437386  0.16541967  0.91788116     0.09000
H2708       H  0.57985963  0.13345742  0.83475652     0.06530
H2709       H  0.66567310  0.08152536  0.86365471     0.06380
C2710       C  0.90397923  0.12583922  0.85352633     0.03420
C2711       C  0.90110252  0.15033404  0.87620020    -0.12730
C2712       C  0.87586131  0.14877989  0.89816032     0.00920
C2713       C  0.85348665  0.12354248  0.89750052    -0.11260
C2714       C  0.85696659  0.09934360  0.87414085     0.03410
C2715       C  0.88192601  0.10029748  0.85185627    -0.10680
H2716       H  0.91864958  0.17015877  0.87707289     0.09000
H2717       H  0.83385669  0.12254546  0.91515685     0.06530
H2718       H  0.88405910  0.08151499  0.83330271     0.06380
C2719       C  0.84591234  0.37551838  0.89622599     0.03420
C2720       C  0.86837512  0.35033748  0.89754643    -0.12730
C2721       C  0.89283804  0.34947421  0.87461196     0.00920
C2722       C  0.89524716  0.37341983  0.85097981    -0.11260
C2723       C  0.87235761  0.39817877  0.85067016     0.03410
C2724       C  0.84765427  0.39957856  0.87313597    -0.10680
H2725       H  0.86689986  0.33176039  0.91627732     0.09000
H2726       H  0.91455024  0.37270984  0.83295490     0.06530
H2727       H  0.82975946  0.41907634  0.87247679     0.06380
C2728       C  0.64347035  0.09708864  0.62713946     0.03420
C2729       C  0.64821767  0.11769200  0.60066631    -0.12730
C2730       C  0.62635340  0.14269097  0.59549466     0.00920
C2731       C  0.60063379  0.14809469  0.61676982    -0.11260
C2732       C  0.59660796  0.12734863  0.64271979     0.03410
C2733       C  0.61815833  0.10195902  0.64851386    -0.10680
H2734       H  0.66834198  0.11392862  0.58396904     0.09000
H2735       H  0.58368469  0.16803318  0.61295212     0.06530
H2736       H  0.61480551  0.08570791  0.66907133     0.06380
O2737       O  0.57907650  0.70100538  0.24051927    -0.72660
O2738       O  0.57533423  0.79896826  0.26228652    -0.73640
O2739       O  0.57614164  0.73933051  0.30048167    -0.62260
O2740       O  0.57685529  0.76089327  0.20198927    -0.70670
O2741       O  0.52417163  0.76600424  0.20305214    -0.70220
O2742       O  0.52360877  0.73148117  0.29894145    -0.61470
O2743       O  0.52269649  0.79591073  0.26857055    -0.73980
O2744       O  0.52618127  0.70178302  0.23465621    -0.72760
Cu2745     Cu  0.57875953  0.75013087  0.25135587     1.04560
Cu2746     Cu  0.52355151  0.74876120  0.25127952     1.04330
C2747       C  0.55265781  0.68608953  0.23316047     0.93540
C2748       C  0.54838374  0.81263273  0.27038141     0.92680
C2749       C  0.54972990  0.73100596  0.31525562     0.84830
C2750       C  0.55033527  0.76791325  0.18682103     0.91100
O2751       O  0.70047307  0.92325808  0.24010487    -0.72660
O2752       O  0.79893960  0.91965618  0.25595984    -0.73640
O2753       O  0.74157634  0.92209229  0.29819237    -0.62260
O2754       O  0.75742937  0.92081070  0.19855090    -0.70670
O2755       O  0.76488314  0.97381912  0.19911982    -0.70220
O2756       O  0.73627188  0.97509691  0.29573646    -0.61470
O2757       O  0.79888105  0.97282634  0.26146336    -0.73980
O2758       O  0.70243558  0.97600667  0.23202341    -0.72760
Cu2759     Cu  0.74953033  0.91963235  0.24820248     1.04560
Cu2760     Cu  0.75070365  0.97562554  0.24711275     1.04330
C2761       C  0.68598837  0.94978149  0.23178835     0.93540
C2762       C  0.81446317  0.94608017  0.26244202     0.92680
C2763       C  0.73521954  0.94921803  0.31272159     0.84830
C2764       C  0.76463514  0.94720648  0.18325452     0.91100
O2765       O  0.92325301  0.73930825  0.19986469    -0.72660
O2766       O  0.92291156  0.76071097  0.29749500    -0.73640
O2767       O  0.92491994  0.79942142  0.23835238    -0.62260
O2768       O  0.92207644  0.70019244  0.25834842    -0.70670
O2769       O  0.97484427  0.70164000  0.26433883    -0.70220
O2770       O  0.97739669  0.79698556  0.23117706    -0.61470
O2771       O  0.97561374  0.76655832  0.29610211    -0.73980
O2772       O  0.97590290  0.73169762  0.20119475    -0.72760
Cu2773     Cu  0.92137523  0.74997642  0.24849898     1.04560
Cu2774     Cu  0.97655837  0.74922622  0.24823054     1.04330
C2775       C  0.94954291  0.73047915  0.18540581     0.93540
C2776       C  0.94937134  0.76867765  0.31214228     0.92680
C2777       C  0.95169829  0.81382804  0.23050221     0.84590
C2778       C  0.94874979  0.68518290  0.26491704     0.91100
O2779       O  0.79765540  0.76317772  0.07627572    -0.72660
O2780       O  0.69919412  0.74096833  0.07859729    -0.73640
O2781       O  0.75903987  0.70304228  0.07648275    -0.62260
O2782       O  0.73789841  0.80090389  0.07763815    -0.70670
O2783       O  0.73073640  0.80033338  0.02500583    -0.70220
O2784       O  0.76482848  0.70499260  0.02387095    -0.61470
O2785       O  0.70081314  0.73609316  0.02570142    -0.73980
O2786       O  0.79583232  0.77020007  0.02374229    -0.72760
Cu2787     Cu  0.74850639  0.75205838  0.07914112     1.04560
Cu2788     Cu  0.74803903  0.75296655  0.02392692     1.04330
C2789       C  0.81217932  0.77145105  0.04976895     0.93540
C2790       C  0.68463901  0.73392480  0.05186774     0.92680
C2791       C  0.76639441  0.68847078  0.04972446     0.84830
C2792       C  0.72987674  0.81603693  0.05149074     0.91100
C2793       C  0.65290835  0.71534796  0.05201625     0.03420
C2794       C  0.65501218  0.68653933  0.06934670    -0.12730
C2795       C  0.62997089  0.66424077  0.06855686     0.00920
C2796       C  0.60356390  0.66782187  0.04824650    -0.11260
C2797       C  0.59754436  0.69720146  0.03267227     0.03410
C2798       C  0.62263762  0.72214631  0.03518041    -0.10680
H2799       H  0.67586649  0.68179578  0.08482466     0.09000
H2800       H  0.58508850  0.64888229  0.04897603     0.06530
H2801       H  0.61834406  0.74638101  0.52626055     0.06380
C2802       C  0.53414266  0.69791385  0.40540577     0.03420
C2803       C  0.52720751  0.71503706  0.37529677    -0.12730
C2804       C  0.55148562  0.71667374  0.34945749     0.00920
C2805       C  0.58001504  0.69950956  0.35436527    -0.11260
C2806       C  0.58342259  0.67890916  0.38053971     0.03410
C2807       C  0.56211143  0.67912962  0.40640866    -0.10680
H2808       H  0.00318286  0.72452810  0.37169649     0.09000
H2809       H  0.59833067  0.69817457  0.33535089     0.06530
H2810       H  0.56698308  0.66343367  0.42708335     0.06380
C2811       C  0.96488805  0.69516518  0.09736158     0.03420
C2812       C  0.97123334  0.71356365  0.12657473    -0.12730
C2813       C  0.94756891  0.71420809  0.15259590     0.00920
C2814       C  0.92029898  0.69462973  0.14931557    -0.11260
C2815       C  0.91674206  0.67443463  0.12278416     0.03410
C2816       C  0.93778086  0.67518742  0.09674468    -0.10680
H2817       H  0.49439688  0.72515493  0.12933436     0.09000
H2818       H  0.90264989  0.69270345  0.16890044     0.06530
H2819       H  0.93291403  0.65966371  0.07585275     0.06380
O2820       O  0.54698434  0.72538268  0.01778812    -0.72660
O2821       O  0.95039334  0.72319972  0.48750871    -0.73640
O2822       O  0.98365441  0.72331661  0.04984659    -0.62260
O2823       O  0.51378881  0.72427004  0.45410899    -0.70670
O2824       O  0.50944693  0.67104050  0.45191899    -0.70220
O2825       O  0.98926602  0.67003204  0.05025258    -0.61470
O2826       O  0.94990408  0.66995326  0.49182783    -0.73980
O2827       O  0.54828460  0.67236879  0.01119477    -0.72760
Cu2828     Cu  0.99866061  0.72518396  0.50230093     1.04560
Cu2829     Cu  0.99928115  0.66902675  0.50127910     1.04330
C2830       C  0.56315224  0.69900152  0.01883753     0.93540
C2831       C  0.93450254  0.69662111  0.48595094     0.92680
C2832       C  0.98215795  0.69657486  0.06529714     0.84830
C2833       C  0.51608115  0.69807987  0.43758617     0.91100
C2834       C  0.90235929  0.80433993  0.03384059     0.03420
C2835       C  0.87203118  0.78741335  0.02706536    -0.12730
C2836       C  0.84601621  0.78668057  0.05116992     0.00920
C2837       C  0.85052923  0.80522923  0.07899115    -0.11260
C2838       C  0.87768010  0.82459243  0.08271242     0.03410
C2839       C  0.90367520  0.82332159  0.06162395    -0.10680
H2840       H  0.86832736  0.77732984  0.50324217     0.09000
H2841       H  0.83123721  0.80747470  0.09691978     0.06530
H2842       H  0.92496130  0.83820561  0.06672678     0.06380
C2843       C  0.96452887  0.80330030  0.40174025     0.03420
C2844       C  0.97118025  0.78524177  0.37202420    -0.12730
C2845       C  0.94776483  0.78486995  0.34550952     0.00920
C2846       C  0.92059462  0.80455176  0.34899114    -0.11260
C2847       C  0.91679117  0.82443516  0.37578244     0.03410
C2848       C  0.93743796  0.82325063  0.40210648    -0.10680
H2849       H  0.49444461  0.77382952  0.36914457     0.09000
H2850       H  0.90306894  0.80674982  0.32938624     0.06530
H2851       H  0.93230746  0.83858735  0.42308025     0.06380
C2852       C  0.53456823  0.80082361  0.09572888     0.03420
C2853       C  0.52751106  0.78382727  0.12618283    -0.12730
C2854       C  0.55183631  0.78207602  0.15216149     0.00920
C2855       C  0.58053654  0.79889583  0.14680633    -0.11260
C2856       C  0.58396702  0.81958395  0.12065443     0.03410
C2857       C  0.56268035  0.81943083  0.09479065    -0.10680
H2858       H  0.00341272  0.77460617  0.13004836     0.09000
H2859       H  0.59905023  0.80008743  0.16557284     0.06530
H2860       H  0.56766716  0.83516577  0.07415622     0.06380
O2861       O  0.95010105  0.83002693  0.01016226    -0.72660
O2862       O  0.54805186  0.82693807  0.48772215    -0.73640
O2863       O  0.98809398  0.82894627  0.44968650    -0.62260
O2864       O  0.51060553  0.82821654  0.04860705    -0.70670
O2865       O  0.51368815  0.77496828  0.04656301    -0.70220
O2866       O  0.98319844  0.77566205  0.45018105    -0.61470
O2867       O  0.54650173  0.77377849  0.48230351    -0.73980
O2868       O  0.95028277  0.77669089  0.01348504    -0.72760
Cu2869     Cu  0.99926769  0.83037379  0.49903370     1.04560
Cu2870     Cu  0.99834091  0.77420709  0.99815112     1.04330
C2871       C  0.93472607  0.80336982  0.01616721     0.93540
C2872       C  0.56263582  0.80013013  0.48022687     0.92680
C2873       C  0.98146414  0.80226528  0.43444871     0.84830
C2874       C  0.51660294  0.80107183  0.06316304     0.91100
C2875       C  0.90128006  0.69528241  0.46993714     0.03420
C2876       C  0.87202276  0.71441897  0.47543344    -0.12730
C2877       C  0.84533673  0.71361255  0.45205666     0.00920
C2878       C  0.84829954  0.69221799  0.42617509    -0.11260
C2879       C  0.87481690  0.67205116  0.42351037     0.03410
C2880       C  0.90087404  0.67356270  0.44437117    -0.10680
H2881       H  0.86970737  0.72752873  0.99784715     0.09000
H2882       H  0.82893679  0.68966649  0.40840138     0.06530
H2883       H  0.92164256  0.65778843  0.43977947     0.06380
C2884       C  0.59626156  0.80158996  0.46469395     0.03420
C2885       C  0.62258823  0.77788876  0.46457706    -0.12730
C2886       C  0.65235122  0.78426838  0.44665138     0.00920
C2887       C  0.65330168  0.81161818  0.42709330    -0.11260
C2888       C  0.62736849  0.83280687  0.42605330     0.03410
C2889       C  0.60032718  0.82908487  0.44552873    -0.10680
H2890       H  0.61973695  0.75479043  0.97639442     0.09000
H2891       H  0.67439599  0.81647886  0.41190348     0.06530
H2892       H  0.58090570  0.84688519  0.44320298     0.06380
O2893       O  0.79852974  0.73828304  0.42546261    -0.72660
O2894       O  0.70004765  0.75986243  0.42151435    -0.73640
O2895       O  0.75967588  0.79826798  0.42429322    -0.62260
O2896       O  0.73883667  0.70036061  0.42322372    -0.70670
O2897       O  0.73044760  0.70117464  0.47574078    -0.70220
O2898       O  0.76454147  0.79659468  0.47698329    -0.61470
O2899       O  0.70028127  0.76533720  0.47439110    -0.73980
O2900       O  0.79523863  0.73177719  0.47798066    -0.72760
Cu2901     Cu  0.74936738  0.74919325  0.42172808     1.04560
Cu2902     Cu  0.74756964  0.74869688  0.47692804     1.04330
C2903       C  0.81224545  0.73019923  0.45240396     0.93540
C2904       C  0.68472882  0.76692027  0.44786462     0.92680
C2905       C  0.76662583  0.81297301  0.45107188     0.84830
C2906       C  0.73017685  0.68536149  0.44926285     0.91100
C2907       C  0.79999593  0.59841667  0.03284226     0.03420
C2908       C  0.78229280  0.62845007  0.02633195    -0.12730
C2909       C  0.78118336  0.65444297  0.05065788     0.00920
C2910       C  0.79922941  0.64984178  0.07854073    -0.11260
C2911       C  0.81927672  0.62334087  0.08158150     0.03410
C2912       C  0.81905242  0.59758543  0.06021788    -0.10680
H2913       H  0.77198334  0.63200564  0.50271911     0.09000
H2914       H  0.80088789  0.66877761  0.09700329     0.06530
H2915       H  0.83462071  0.57669179  0.06501756     0.06380
C2916       C  0.78179479  0.84686303  0.45012433     0.03420
C2917       C  0.80074803  0.85082515  0.42273003    -0.12730
C2918       C  0.82113613  0.87710034  0.41976295     0.00920
C2919       C  0.82051430  0.90328560  0.44061555    -0.11260
C2920       C  0.80048040  0.90313706  0.46741218     0.03410
C2921       C  0.78243658  0.87328456  0.47399906    -0.10680
H2922       H  0.80260318  0.83163872  0.40453239     0.09000
H2923       H  0.83625545  0.92404626  0.43572262     0.06530
H2924       H  0.77157635  0.87022392  0.99746354     0.06380
C2925       C  0.78031725  0.94532604  0.15015956     0.03420
C2926       C  0.80567712  0.92345960  0.14950030    -0.12730
C2927       C  0.82706104  0.92285101  0.12376709     0.00920
C2928       C  0.82498492  0.94393487  0.09799107    -0.11260
C2929       C  0.79904540  0.96521050  0.09540256     0.03410
C2930       C  0.77526592  0.96513949  0.12156265    -0.10680
H2931       H  0.80988820  0.90721618  0.16993392     0.09000
H2932       H  0.84311983  0.94211543  0.07883491     0.06530
H2933       H  0.75281185  0.47793879  0.11920602     0.06380
O2934       O  0.77365562  0.54887941  0.01530278    -0.72660
O2935       O  0.77369988  0.95301646  0.48375556    -0.73640
O2936       O  0.77262091  0.98419613  0.04650462    -0.62260
O2937       O  0.77402309  0.51810516  0.45214607    -0.70670
O2938       O  0.82672936  0.51112623  0.45116553    -0.70220
O2939       O  0.82532232  0.99072738  0.04914727    -0.61470
O2940       O  0.82638959  0.95111072  0.49066945    -0.73980
O2941       O  0.82646422  0.55074961  0.00960721    -0.72760
Cu2942     Cu  0.77275684  0.50106622  0.99938125     1.04560
Cu2943     Cu  0.82816778  0.50094083  0.50016363     1.04330
C2944       C  0.79962729  0.56554363  0.01606599     0.93540
C2945       C  0.79968585  0.93630755  0.48367749     0.92680
C2946       C  0.79847259  0.98239041  0.06295906     0.84830
C2947       C  0.80044315  0.51954772  0.43644611     0.91100
C2948       C  0.71573903  0.85003552  0.05373252     0.03420
C2949       C  0.71348205  0.87526477  0.02919308    -0.12730
C2950       C  0.69659440  0.90538266  0.03618985     0.00920
C2951       C  0.67811650  0.90689333  0.06427699    -0.11260
C2952       C  0.67844137  0.88130640  0.08589526     0.03410
C2953       C  0.69930947  0.85529048  0.08261780    -0.10680
H2954       H  0.72223633  0.87114728  0.50494752     0.09000
H2955       H  0.66239679  0.92767536  0.06901492     0.06530
H2956       H  0.69846378  0.83648880  0.10118425     0.06380
C2957       C  0.71603478  0.65137634  0.44678431     0.03420
C2958       C  0.69995244  0.64607045  0.41769708    -0.12730
C2959       C  0.67961837  0.61962880  0.41396305     0.00920
C2960       C  0.67928206  0.59406713  0.43560019    -0.11260
C2961       C  0.69696113  0.59595477  0.46409535     0.03410
C2962       C  0.71362463  0.62613709  0.47127286    -0.10680
H2963       H  0.69904570  0.66500213  0.39927501     0.09000
H2964       H  0.66389083  0.57305986  0.43067269     0.06530
H2965       H  0.72226841  0.63024126  0.99552493     0.06380
C2966       C  0.71829933  0.94907231  0.34574605     0.03420
C2967       C  0.69148262  0.92892369  0.34544983    -0.12730
C2968       C  0.67046117  0.92822353  0.37141403     0.00920
C2969       C  0.67275445  0.94912653  0.39736161    -0.11260
C2970       C  0.70010528  0.96803991  0.40185603     0.03410
C2971       C  0.72449607  0.96714120  0.37576793    -0.10680
H2972       H  0.68685603  0.91289379  0.32487059     0.09000
H2973       H  0.65425702  0.94733422  0.41617471     0.06530
H2974       H  0.74812090  0.47756135  0.37921454     0.06380
O2975       O  0.72605178  0.98389211  0.45305573    -0.72660
O2976       O  0.72443765  0.51818517  0.04849918    -0.73640
O2977       O  0.72379046  0.95347761  0.01704854    -0.62260
O2978       O  0.72370961  0.54821578  0.48413037    -0.70670
O2979       O  0.67079466  0.54988767  0.48955600    -0.70220
O2980       O  0.67099656  0.95156886  0.01037975    -0.61470
O2981       O  0.67180411  0.51134909  0.04947685    -0.73980
O2982       O  0.67348103  0.99035539  0.45041364    -0.72760
Cu2983     Cu  0.72523527  0.00096576  0.50073688     1.04560
Cu2984     Cu  0.66984096  0.00077347  0.49993503     1.04330
C2985       C  0.70046592  0.98284054  0.43608846     0.93540
C2986       C  0.69822407  0.51906987  0.06464952     0.92680
C2987       C  0.69753392  0.93719548  0.01817928     0.84830
C2988       C  0.69747300  0.56433994  0.48232711     0.91100
C2989       C  0.84726764  0.94427258  0.27877160     0.03420
C2990       C  0.84720816  0.92281468  0.30447978    -0.12730
C2991       C  0.87296237  0.92172573  0.32572360     0.00920
C2992       C  0.89901439  0.94255508  0.32376787    -0.11260
C2993       C  0.90234927  0.96340143  0.29764379     0.03410
C2994       C  0.87650402  0.96323026  0.27348499    -0.10680
H2995       H  0.82645952  0.90691930  0.30874559     0.09000
H2996       H  0.91801720  0.94054334  0.34199069     0.06530
H2997       H  0.87950472  0.47506581  0.25054412     0.06380
C2998       C  0.96735381  0.59636404  0.29917897     0.03420
C2999       C  0.94941376  0.60121394  0.32718398    -0.12730
C3000       C  0.92905563  0.62751652  0.33022798     0.00920
C3001       C  0.92887968  0.65302702  0.30873631    -0.11260
C3002       C  0.94815295  0.65224229  0.28142063     0.03410
C3003       C  0.96621603  0.62231413  0.27491127    -0.10680
H3004       H  0.94796151  0.58250464  0.34580826     0.09000
H3005       H  0.91307040  0.67376644  0.31353334     0.06530
H3006       H  0.47700243  0.61891538  0.25141106     0.06380
C3007       C  0.53014263  0.90058556  0.30574472     0.03420
C3008       C  0.52496164  0.87143917  0.28664512    -0.12730
C3009       C  0.54868622  0.84528110  0.28717718     0.00920
C3010       C  0.57441243  0.84822750  0.30850179    -0.11260
C3011       C  0.57644005  0.87453237  0.32903789     0.03410
C3012       C  0.55533227  0.90046958  0.32770617    -0.10680
H3013       H  0.00248815  0.86871556  0.27388044     0.09000
H3014       H  0.59244775  0.82898349  0.31075616     0.06530
H3015       H  0.55956965  0.92138714  0.34346736     0.06380
O3016       O  0.95246125  0.98035515  0.27188411    -0.72660
O3017       O  0.54735043  0.51258685  0.27601371    -0.73640
O3018       O  0.51498179  0.94897669  0.27642511    -0.62260
O3019       O  0.98387275  0.54532614  0.27258890    -0.70670
O3020       O  0.98884961  0.54777109  0.32521762    -0.70220
O3021       O  0.50701960  0.94933449  0.32909532    -0.61470
O3022       O  0.54788512  0.50853111  0.32894182    -0.73980
O3023       O  0.94876197  0.98858818  0.32431677    -0.72760
Cu3024     Cu  0.99976690  0.99677333  0.27334401     1.04560
Cu3025     Cu  0.99802935  0.99860683  0.32877201     1.04330
C3026       C  0.93532104  0.97979310  0.29736841     0.93540
C3027       C  0.56314631  0.51489387  0.30234275     0.92680
C3028       C  0.51453115  0.93358505  0.30315205     0.84830
C3029       C  0.98203881  0.56217338  0.29833725     0.91100
C3030       C  0.78444719  0.55442637  0.34804077     0.03420
C3031       C  0.77790790  0.53687524  0.37779178    -0.12730
C3032       C  0.80227527  0.53524710  0.40321585     0.00920
C3033       C  0.83018186  0.55369314  0.39901550    -0.11260
C3034       C  0.83356389  0.57390245  0.37254397     0.03410
C3035       C  0.81214641  0.57348412  0.34684546    -0.10680
H3036       H  0.75400660  0.02714428  0.38162123     0.09000
H3037       H  0.84831949  0.55524944  0.41813008     0.06530
H3038       H  0.81701521  0.58883287  0.32588256     0.06380
C3039       C  0.71457452  0.55176517  0.15537977     0.03420
C3040       C  0.68630952  0.57007967  0.15684175    -0.12730
C3041       C  0.66471090  0.56994570  0.13122359     0.00920
C3042       C  0.66771335  0.54886319  0.10527260    -0.11260
C3043       C  0.69667836  0.53279436  0.09935388     0.03410
C3044       C  0.72152280  0.53527120  0.12470287    -0.10680
H3045       H  0.68153585  0.58586214  0.17755421     0.09000
H3046       H  0.64887712  0.54963712  0.08680667     0.06530
H3047       H  0.74596790  0.02735393  0.12016238     0.06380
C3048       C  0.59543691  0.53288258  0.30266188     0.03420
C3049       C  0.62549653  0.52644083  0.28489893    -0.12730
C3050       C  0.65093202  0.55129906  0.28287262     0.00920
C3051       C  0.64502326  0.58036166  0.29910970    -0.11260
C3052       C  0.61889897  0.58357806  0.31989058     0.03410
C3053       C  0.59392039  0.56123315  0.32089354    -0.10680
H3054       H  0.62925482  0.00257077  0.27469562     0.09000
H3055       H  0.66338683  0.59941755  0.29982922     0.06530
H3056       H  0.57333965  0.56586240  0.33684416     0.06380
O3057       O  0.75963651  0.57967418  0.30105037    -0.72660
O3058       O  0.73948952  0.57876432  0.20211548    -0.73640
O3059       O  0.70032276  0.57677014  0.26161200    -0.62260
O3060       O  0.79947024  0.58003374  0.24221495    -0.70670
O3061       O  0.79910111  0.52686435  0.23763555    -0.70220
O3062       O  0.70214407  0.52384433  0.26795621    -0.61470
O3063       O  0.73546553  0.52557689  0.20404220    -0.73980
O3064       O  0.76566550  0.52651748  0.30016375    -0.72760
Cu3065     Cu  0.74967144  0.58064365  0.25174577     1.04560
Cu3066     Cu  0.75065858  0.52459411  0.25242666     1.04330
C3067       C  0.76688561  0.55314566  0.31596833     0.93540
C3068       C  0.73294643  0.55172905  0.18757135     0.92680
C3069       C  0.68556687  0.54996250  0.26898779     0.84830
C3070       C  0.81507516  0.55339929  0.23629203     0.91100
C3071       C  0.65186410  0.94786356  0.21775673     0.03420
C3072       C  0.64572449  0.91817044  0.20264422    -0.12730
C3073       C  0.61964162  0.91448958  0.18197477     0.00920
C3074       C  0.59528801  0.93732918  0.17987918    -0.11260
C3075       C  0.59756132  0.96640862  0.19675057     0.03410
C3076       C  0.62730668  0.97306602  0.21442772    -0.10680
H3077       H  0.66390930  0.89895755  0.20257624     0.09000
H3078       H  0.57467168  0.93254706  0.16405100     0.06530
H3079       H  0.63154344  0.49728755  0.22365516     0.06380
C3080       C  0.95090702  0.84808485  0.21611700     0.03420
C3081       C  0.92293139  0.85297678  0.19833590    -0.12730
C3082       C  0.92013739  0.87929865  0.17803591     0.00920
C3083       C  0.94137740  0.90515090  0.17853222    -0.11260
C3084       C  0.96879398  0.90423551  0.19764456     0.03410
C3085       C  0.97546641  0.87391253  0.21476694    -0.10680
H3086       H  0.90433841  0.83417186  0.19678664     0.09000
H3087       H  0.93656232  0.92605220  0.16303161     0.06530
H3088       H  0.49946520  0.87006619  0.22419979     0.06380
C3089       C  0.90439021  0.53581530  0.20132039     0.03420
C3090       C  0.87823530  0.53607900  0.22559239    -0.12730
C3091       C  0.84845864  0.55459372  0.22005279     0.00920
C3092       C  0.84844367  0.57554757  0.19402442    -0.11260
C3093       C  0.87418167  0.57653216  0.17264550     0.03410
C3094       C  0.90058152  0.55617770  0.17487356    -0.10680
H3095       H  0.88160302  0.02482140  0.24878702     0.09000
H3096       H  0.82765833  0.59132143  0.18963621     0.06530
H3097       H  0.91948354  0.55826506  0.15651402     0.06380
C3098       C  0.55355985  0.65440600  0.21507516     0.03420
C3099       C  0.57121640  0.65637034  0.18656078    -0.12730
C3100       C  0.56992697  0.63136352  0.16427376     0.00920
C3101       C  0.54910225  0.60527022  0.16767796    -0.11260
C3102       C  0.53353694  0.59953634  0.19699072     0.03410
C3103       C  0.53634684  0.62445230  0.22185993    -0.10680
H3104       H  0.58701073  0.67712570  0.18190373     0.09000
H3105       H  0.54950649  0.58670179  0.14878945     0.06530
H3106       H  0.02737961  0.62033229  0.24604906     0.06380
O3107       O  0.55092946  0.99129228  0.17048560    -0.72660
O3108       O  0.95182902  0.51180650  0.17420513    -0.73640
O3109       O  0.51130134  0.55040566  0.17301577    -0.62260
O3110       O  0.99185779  0.95186451  0.17123291    -0.70670
O3111       O  0.98764436  0.95355655  0.22413953    -0.70220
O3112       O  0.51941294  0.54955070  0.22556477    -0.61470
O3113       O  0.95498555  0.51805967  0.22670558    -0.73980
O3114       O  0.55011186  0.98625580  0.22343747    -0.72760
Cu3115     Cu  0.00141265  0.50142028  0.17033293     1.04560
Cu3116     Cu  0.00306119  0.00185413  0.22578631     1.04330
C3117       C  0.56587564  0.98455301  0.19707306     0.93540
C3118       C  0.93793151  0.51967887  0.20125766     0.92680
C3119       C  0.51965778  0.56542587  0.19920581     0.84830
C3120       C  0.98592580  0.93700579  0.19805157     0.91100
C3121       C  0.87330912  0.60007952  0.14767484     0.03420
C3122       C  0.84734696  0.59974902  0.12667088    -0.12730
C3123       C  0.84445618  0.62472353  0.10468962     0.00920
C3124       C  0.86718199  0.64966503  0.10282913    -0.11260
C3125       C  0.89294034  0.64937493  0.12418887     0.03410
C3126       C  0.89642123  0.62464466  0.14682517    -0.10680
H3127       H  0.82932603  0.58035572  0.12764148     0.09000
H3128       H  0.86504902  0.66881394  0.08475148     0.06530
H3129       H  0.91653881  0.62481163  0.16389662     0.06380
C3130       C  0.89728740  0.87747664  0.15259296     0.03420
C3131       C  0.89892945  0.85170093  0.13069572    -0.12730
C3132       C  0.87648852  0.85038349  0.10588192     0.00920
C3133       C  0.85318588  0.87455923  0.10235358    -0.11260
C3134       C  0.85259369  0.89992929  0.12456520     0.03410
C3135       C  0.87458315  0.90182399  0.14964090    -0.10680
H3136       H  0.91741407  0.83292946  0.13296553     0.09000
H3137       H  0.83541618  0.87338371  0.08288347     0.06530
H3138       H  0.87355775  0.92170463  0.16714512     0.06380
C3139       C  0.65180951  0.87736386  0.10753282     0.03420
C3140       C  0.63034922  0.85165573  0.10229783    -0.12730
C3141       C  0.60565624  0.84652961  0.12442432     0.00920
C3142       C  0.60148710  0.86719724  0.15099199    -0.11260
C3143       C  0.62328749  0.89236847  0.15556623     0.03410
C3144       C  0.64838990  0.89798783  0.13371827    -0.10680
H3145       H  0.63332236  0.83538325  0.08163439     0.09000
H3146       H  0.58167837  0.86354998  0.16807957     0.06530
H3147       H  0.66528636  0.91807572  0.13723402     0.06380
C3148       C  0.64759620  0.90268042  0.37332417     0.03420
C3149       C  0.62428315  0.90025922  0.34963333    -0.12730
C3150       C  0.60177765  0.87557616  0.35195225     0.00920
C3151       C  0.60235732  0.85325641  0.37706534    -0.11260
C3152       C  0.62621144  0.85625551  0.40062240     0.03410
C3153       C  0.64922310  0.88072232  0.39892637    -0.10680
H3154       H  0.62328508  0.91779659  0.32987827     0.09000
H3155       H  0.58427917  0.83396251  0.37839124     0.06530
H3156       H  0.66806252  0.88273470  0.41728483     0.06380
C3157       C  0.65284374  0.62312870  0.39243580     0.03420
C3158       C  0.63102264  0.64845987  0.39783859    -0.12730
C3159       C  0.60518170  0.65211470  0.37687185     0.00920
C3160       C  0.60029449  0.63053289  0.35119712    -0.11260
C3161       C  0.62240585  0.60568531  0.34640349     0.03410
C3162       C  0.64857455  0.60138892  0.36724750    -0.10680
H3163       H  0.63440139  0.66542762  0.41786919     0.09000
H3164       H  0.57987118  0.63344837  0.33476227     0.06530
H3165       H  0.66568808  0.58151948  0.36365657     0.06380
C3166       C  0.90396499  0.62583667  0.35350348     0.03420
C3167       C  0.90108199  0.65033583  0.37617151    -0.12730
C3168       C  0.87584285  0.64877861  0.39813280     0.00920
C3169       C  0.85347595  0.62353449  0.39748050    -0.11260
C3170       C  0.85696299  0.59933110  0.37412661     0.03410
C3171       C  0.88192043  0.60028748  0.35184048    -0.10680
H3172       H  0.91862435  0.67016499  0.37704076     0.09000
H3173       H  0.83384741  0.62253555  0.41513829     0.06530
H3174       H  0.88405776  0.58150193  0.33329043     0.06380
C3175       C  0.84595541  0.87553319  0.39622820     0.03420
C3176       C  0.86843381  0.85036747  0.39755984    -0.12730
C3177       C  0.89289156  0.84950456  0.37461976     0.00920
C3178       C  0.89528053  0.87343589  0.35097154    -0.11260
C3179       C  0.87237561  0.89818022  0.35065015     0.03410
C3180       C  0.84767707  0.89957983  0.37312201    -0.10680
H3181       H  0.86697057  0.83179842  0.41629954     0.09000
H3182       H  0.91457913  0.87272469  0.33294180     0.06530
H3183       H  0.82977125  0.91906704  0.37245601     0.06380
C3184       C  0.64346754  0.59708660  0.12713849     0.03420
C3185       C  0.64821390  0.61769075  0.10066594    -0.12730
C3186       C  0.62635024  0.64269058  0.09549679     0.00920
C3187       C  0.60063242  0.64809468  0.11677386    -0.11260
C3188       C  0.59660795  0.62734800  0.14272349     0.03410
C3189       C  0.61815768  0.60195743  0.14851522    -0.10680
H3190       H  0.66833685  0.61392716  0.08396704     0.09000
H3191       H  0.58368350  0.66803363  0.11295771     0.06530
H3192       H  0.61480558  0.58570560  0.16907224     0.06380
O3193       O  0.57907898  0.70100559  0.74052235    -0.72660
O3194       O  0.57533176  0.79896940  0.76228557    -0.73640
O3195       O  0.57614300  0.73933302  0.80048304    -0.62260
O3196       O  0.57685447  0.76089258  0.70198994    -0.70670
O3197       O  0.52417062  0.76600123  0.70305387    -0.70220
O3198       O  0.52361071  0.73147958  0.79894394    -0.61470
O3199       O  0.52269446  0.79590902  0.76857179    -0.73980
O3200       O  0.52618372  0.70178043  0.73465954    -0.72760
Cu3201     Cu  0.57875964  0.75013169  0.75135686     1.04560
Cu3202     Cu  0.52355175  0.74875892  0.75128170     1.04330
C3203       C  0.55266094  0.68608799  0.73316464     0.93540
C3204       C  0.54838082  0.81263262  0.77038111     0.92680
C3205       C  0.54973218  0.73100684  0.81525770     0.84830
C3206       C  0.55033389  0.76791171  0.68682232     0.91100
O3207       O  0.70046943  0.92326242  0.74010215    -0.72660
O3208       O  0.79893409  0.91965305  0.75596191    -0.73640
O3209       O  0.74157075  0.92209257  0.79819026    -0.62260
O3210       O  0.75742723  0.92081333  0.69854921    -0.70670
O3211       O  0.76488300  0.97382134  0.69912091    -0.70220
O3212       O  0.73627223  0.97509813  0.79573789    -0.61470
O3213       O  0.79887931  0.97282312  0.76146647    -0.73980
O3214       O  0.70243378  0.97601197  0.73202650    -0.72760
Cu3215     Cu  0.74952593  0.91963350  0.74820114     1.04560
Cu3216     Cu  0.75070294  0.97562723  0.74711459     1.04330
C3217       C  0.68598572  0.94978717  0.73178823     0.93540
C3218       C  0.81445861  0.94607557  0.76244741     0.92680
C3219       C  0.73521697  0.94921817  0.81272112     0.84830
C3220       C  0.76463452  0.94720955  0.68325411     0.91100
O3221       O  0.92325014  0.73930095  0.69987002    -0.72660
O3222       O  0.92291333  0.76070362  0.79750080    -0.73640
O3223       O  0.92491717  0.79941567  0.73835697    -0.62260
O3224       O  0.92207750  0.70018669  0.75835259    -0.70670
O3225       O  0.97484572  0.70163291  0.76434194    -0.70220
O3226       O  0.97739334  0.79697767  0.73117993    -0.61470
O3227       O  0.97561512  0.76655134  0.79610574    -0.73980
O3228       O  0.97590022  0.73169020  0.70119888    -0.72760
Cu3229     Cu  0.92137444  0.74996991  0.74850420     1.04560
Cu3230     Cu  0.97655730  0.74921895  0.74823408     1.04330
C3231       C  0.94953965  0.73047116  0.68541088     0.93540
C3232       C  0.94937377  0.76866983  0.81214741     0.92680
C3233       C  0.95169578  0.81382116  0.73050569     0.84590
C3234       C  0.94875080  0.68517658  0.76491998     0.91100
O3235       O  0.79765369  0.76318802  0.57627293    -0.72660
O3236       O  0.69919317  0.74097638  0.57859810    -0.73640
O3237       O  0.75904136  0.70305289  0.57648841    -0.62260
O3238       O  0.73789670  0.80091400  0.57763163    -0.70670
O3239       O  0.73073583  0.80033915  0.52499905    -0.70220
O3240       O  0.76482799  0.70499762  0.52387629    -0.61470
O3241       O  0.70081163  0.73609785  0.52570254    -0.73980
O3242       O  0.79582992  0.77020452  0.52373878    -0.72760
Cu3243     Cu  0.74850555  0.75206852  0.57914041     1.04560
Cu3244     Cu  0.74803761  0.75297143  0.52392599     1.04330
C3245       C  0.81217713  0.77145797  0.54976489     0.93540
C3246       C  0.68463787  0.73393048  0.55186918     0.92680
C3247       C  0.76639599  0.68847886  0.54973160     0.84830
C3248       C  0.72987585  0.81604506  0.55148274     0.91100
C3249       C  0.65290724  0.71535304  0.55201885     0.03420
C3250       C  0.65501078  0.68654559  0.56935147    -0.12730
C3251       C  0.62997009  0.66424606  0.56856164     0.00920
C3252       C  0.60356330  0.66782576  0.54825064    -0.11260
C3253       C  0.59754421  0.69720400  0.53267381     0.03410
C3254       C  0.62263714  0.72214934  0.53518098    -0.10680
H3255       H  0.67586480  0.68180331  0.58483017     0.09000
H3256       H  0.58508807  0.64888601  0.54898048     0.06530
H3257       H  0.61834434  0.74637892  0.02626266     0.06380
C3258       C  0.53414581  0.69791199  0.90540673     0.03420
C3259       C  0.52720999  0.71503497  0.87529785    -0.12730
C3260       C  0.55148951  0.71667650  0.84946037     0.00920
C3261       C  0.58002233  0.69951855  0.85437064    -0.11260
C3262       C  0.58343030  0.67891567  0.88054323     0.03410
C3263       C  0.56211691  0.67913105  0.90641053    -0.10680
H3264       H  0.00318255  0.72451680  0.87168525     0.09000
H3265       H  0.59833966  0.69818742  0.83535766     0.06530
H3266       H  0.56698854  0.66343374  0.92708415     0.06380
C3267       C  0.96488641  0.69515956  0.59736727     0.03420
C3268       C  0.97123108  0.71355583  0.62658165    -0.12730
C3269       C  0.94756532  0.71420031  0.65260110     0.00920
C3270       C  0.92029488  0.69462268  0.64931887    -0.11260
C3271       C  0.91673853  0.67442833  0.62278640     0.03410
C3272       C  0.93777850  0.67518230  0.59674775    -0.10680
H3273       H  0.49439675  0.72514936  0.62933445     0.09000
H3274       H  0.90264543  0.69269596  0.66890333     0.06530
H3275       H  0.93291252  0.65965965  0.57585486     0.06380
O3276       O  0.54698422  0.72538387  0.51778851    -0.72660
O3277       O  0.95039429  0.72320341  0.98749927    -0.73640
O3278       O  0.98365398  0.72331408  0.54985481    -0.62260
O3279       O  0.51379001  0.72426722  0.95410883    -0.70670
O3280       O  0.50944809  0.67103767  0.95191892    -0.70220
O3281       O  0.98926918  0.67002973  0.55025965    -0.61470
O3282       O  0.94990026  0.66995706  0.99182023    -0.73980
O3283       O  0.54828544  0.67237004  0.51119450    -0.72760
Cu3284     Cu  0.99866191  0.72518350  0.00229319     1.04560
Cu3285     Cu  0.99927711  0.66902663  0.00127123     1.04330
C3286       C  0.56315253  0.69900300  0.51883779     0.93540
C3287       C  0.93450118  0.69662596  0.98594201     0.92680
C3288       C  0.98215842  0.69657155  0.56530436     0.84830
C3289       C  0.51608298  0.69807702  0.93758629     0.91100
C3290       C  0.90235534  0.80434617  0.53383069     0.03420
C3291       C  0.87202777  0.78741773  0.52705790    -0.12730
C3292       C  0.84601355  0.78668729  0.55116322     0.00920
C3293       C  0.85052688  0.80523809  0.57898264    -0.11260
C3294       C  0.87767743  0.82460148  0.58270160     0.03410
C3295       C  0.90367137  0.82333063  0.56161204    -0.10680
H3296       H  0.86833079  0.77732938  0.00324801     0.09000
H3297       H  0.83123592  0.80748397  0.59691241     0.06530
H3298       H  0.92495749  0.83821501  0.56671377     0.06380
C3299       C  0.96453406  0.80329598  0.90174508     0.03420
C3300       C  0.97118524  0.78523506  0.87202985    -0.12730
C3301       C  0.94776871  0.78486174  0.84551526     0.00920
C3302       C  0.92059785  0.80454205  0.84899733    -0.11260
C3303       C  0.91679517  0.82442713  0.87578717     0.03410
C3304       C  0.93744351  0.82324607  0.90211005    -0.10680
H3305       H  0.49444488  0.77382394  0.86914520     0.09000
H3306       H  0.90307038  0.80673775  0.82939366     0.06530
H3307       H  0.93231343  0.83858446  0.92308280     0.06380
C3308       C  0.53456709  0.80082215  0.59572963     0.03420
C3309       C  0.52751021  0.78382458  0.62618311    -0.12730
C3310       C  0.55183396  0.78207671  0.65216364     0.00920
C3311       C  0.58053125  0.79890251  0.64681169    -0.11260
C3312       C  0.58396169  0.81958882  0.62065857     0.03410
C3313       C  0.56267741  0.81943177  0.59479299    -0.10680
H3314       H  0.00340931  0.77459675  0.63003895     0.09000
H3315       H  0.59904304  0.80009754  0.66557990     0.06530
H3316       H  0.56766459  0.83516598  0.57415805     0.06380
O3317       O  0.95009872  0.83003026  0.51015381    -0.72660
O3318       O  0.54804755  0.82693875  0.98772212    -0.73640
O3319       O  0.98809577  0.82894441  0.94969246    -0.62260
O3320       O  0.51060813  0.82821629  0.54860673    -0.70670
O3321       O  0.51368738  0.77496790  0.54656233    -0.70220
O3322       O  0.98320241  0.77566027  0.95018788    -0.61470
O3323       O  0.54650084  0.77377883  0.98230491    -0.73980
O3324       O  0.95027751  0.77669425  0.51347676    -0.72760
Cu3325     Cu  0.99927018  0.83037300  0.99904015     1.04560
Cu3326     Cu  0.99833588  0.77420765  0.49814477     1.04330
C3327       C  0.93472225  0.80337398  0.51615827     0.93540
C3328       C  0.56263312  0.80013139  0.98022789     0.92680
C3329       C  0.98146790  0.80226277  0.93445466     0.84830
C3330       C  0.51660322  0.80107105  0.56316280     0.91100
C3331       C  0.90127922  0.69528896  0.96992692     0.03420
C3332       C  0.87202128  0.71442357  0.97542542    -0.12730
C3333       C  0.84533446  0.71361756  0.95204978     0.00920
C3334       C  0.84829606  0.69222285  0.92616778    -0.11260
C3335       C  0.87481433  0.67205688  0.92350111     0.03410
C3336       C  0.90087330  0.67357065  0.94435971    -0.10680
H3337       H  0.86970918  0.72752642  0.49785388     0.09000
H3338       H  0.82893160  0.68967033  0.90839612     0.06530
H3339       H  0.92164227  0.65779724  0.93976708     0.06380
C3340       C  0.59625865  0.80159241  0.96469566     0.03420
C3341       C  0.62258618  0.77789235  0.96458029    -0.12730
C3342       C  0.65234902  0.78427268  0.94665498     0.00920
C3343       C  0.65329846  0.81162142  0.92709564    -0.11260
C3344       C  0.62736420  0.83280843  0.92605383     0.03410
C3345       C  0.60032294  0.82908642  0.94552909    -0.10680
H3346       H  0.61973842  0.75478656  0.47639070     0.09000
H3347       H  0.67439273  0.81648241  0.91190585     0.06530
H3348       H  0.58090064  0.84688570  0.94320220     0.06380
O3349       O  0.79852765  0.73829302  0.92545993    -0.72660
O3350       O  0.70004579  0.75987077  0.92151686    -0.73640
O3351       O  0.75967180  0.79827934  0.92430074    -0.62260
O3352       O  0.73883508  0.70037056  0.92321823    -0.70670
O3353       O  0.73044569  0.70117788  0.97573532    -0.70220
O3354       O  0.76453995  0.79659770  0.97699019    -0.61470
O3355       O  0.70027919  0.76534044  0.97439418    -0.73980
O3356       O  0.79523698  0.73177974  0.97797719    -0.72760
Cu3357     Cu  0.74936495  0.74920355  0.92172856     1.04560
Cu3358     Cu  0.74756778  0.74869990  0.97692834     1.04330
C3359       C  0.81224345  0.73020492  0.95239986     0.93540
C3360       C  0.68472684  0.76692556  0.94786772     0.92680
C3361       C  0.76662251  0.81298050  0.95108149     0.84830
C3362       C  0.73017533  0.68536800  0.94925545     0.91100
C3363       C  0.79999328  0.59842351  0.53285093     0.03420
C3364       C  0.78229792  0.62846089  0.52633785    -0.12730
C3365       C  0.78118216  0.65444978  0.55066759     0.00920
C3366       C  0.79921813  0.64984255  0.57855656    -0.11260
C3367       C  0.81926091  0.62333816  0.58160113     0.03410
C3368       C  0.81903740  0.59758428  0.56023517    -0.10680
H3369       H  0.77196753  0.63198806  0.00271735     0.09000
H3370       H  0.80087480  0.66877698  0.59702061     0.06530
H3371       H  0.83460123  0.57668767  0.56503656     0.06380
C3372       C  0.78179644  0.84686869  0.95013836     0.03420
C3373       C  0.80076178  0.85082361  0.92275210    -0.12730
C3374       C  0.82115439  0.87709537  0.91978904     0.00920
C3375       C  0.82053096  0.90328298  0.94063832    -0.11260
C3376       C  0.80048482  0.90314276  0.96742583     0.03410
C3377       C  0.78243228  0.87329453  0.97400906    -0.10680
H3378       H  0.80261925  0.83163528  0.90455651     0.09000
H3379       H  0.83627621  0.92404078  0.93574671     0.06530
H3380       H  0.77159196  0.87020645  0.49745822     0.06380
C3381       C  0.78032012  0.94533007  0.65016033     0.03420
C3382       C  0.80568343  0.92346742  0.64950578    -0.12730
C3383       C  0.82706809  0.92285734  0.62377341     0.00920
C3384       C  0.82499154  0.94393806  0.59799493    -0.11260
C3385       C  0.79904956  0.96520980  0.59540128     0.03410
C3386       C  0.77526802  0.96513921  0.62155992    -0.10680
H3387       H  0.80989452  0.90722607  0.66994104     0.09000
H3388       H  0.84312727  0.94211710  0.57883969     0.06530
H3389       H  0.75282303  0.47794400  0.61920135     0.06380
O3390       O  0.77366106  0.54888646  0.51529949    -0.72660
O3391       O  0.77369921  0.95302331  0.98376072    -0.73640
O3392       O  0.77262498  0.98419028  0.54650059    -0.62260
O3393       O  0.77401706  0.51809966  0.95215228    -0.70670
O3394       O  0.82672156  0.51110947  0.95116805    -0.70220
O3395       O  0.82532703  0.99071741  0.54914025    -0.61470
O3396       O  0.82638873  0.95112285  0.99067686    -0.73980
O3397       O  0.82646953  0.55076492  0.50960754    -0.72760
Cu3398     Cu  0.77276613  0.50107292  0.49937583     1.04560
Cu3399     Cu  0.82815809  0.50092492  0.00016659     1.04330
C3400       C  0.79963038  0.56555439  0.51606664     0.93540
C3401       C  0.79968660  0.93631672  0.98368469     0.92680
C3402       C  0.79847707  0.98238414  0.56295431     0.84830
C3403       C  0.80043637  0.51953790  0.93645096     0.91100
C3404       C  0.71573536  0.85004282  0.55372247     0.03420
C3405       C  0.71348557  0.87527581  0.52918597    -0.12730
C3406       C  0.69659166  0.90539080  0.53618041     0.00920
C3407       C  0.67810577  0.90689714  0.56426233    -0.11260
C3408       C  0.67842781  0.88130890  0.58587879     0.03410
C3409       C  0.69929634  0.85529317  0.58260302    -0.10680
H3410       H  0.72222104  0.87112984  0.00495113     0.09000
H3411       H  0.66238457  0.92767831  0.56899911     0.06530
H3412       H  0.69844726  0.83648979  0.60116766     0.06380
C3413       C  0.71603725  0.65138129  0.94677321     0.03420
C3414       C  0.69996510  0.64607173  0.91768074    -0.12730
C3415       C  0.67963219  0.61962953  0.91394332     0.00920
C3416       C  0.67929354  0.59406796  0.93558077    -0.11260
C3417       C  0.69696395  0.59595869  0.96408125     0.03410
C3418       C  0.71362074  0.62614382  0.97126293    -0.10680
H3419       H  0.69906141  0.66500262  0.89925778     0.09000
H3420       H  0.66390430  0.57305979  0.93065082     0.06530
H3421       H  0.72228336  0.63023015  0.49553137     0.06380
C3422       C  0.71829693  0.94907151  0.84574535     0.03420
C3423       C  0.69148100  0.92892182  0.84544810    -0.12730
C3424       C  0.67045909  0.92822057  0.87141149     0.00920
C3425       C  0.67275182  0.94912202  0.89736009    -0.11260
C3426       C  0.70010254  0.96803498  0.90185633     0.03410
C3427       C  0.72449276  0.96714016  0.87576765    -0.10680
H3428       H  0.68685485  0.91289240  0.82486839     0.09000
H3429       H  0.65425388  0.94732823  0.91617252     0.06530
H3430       H  0.74811857  0.47756673  0.87920485     0.06380
O3431       O  0.72604929  0.98388687  0.95305620    -0.72660
O3432       O  0.72444608  0.51818334  0.54850730    -0.73640
O3433       O  0.72379258  0.95348565  0.51704651    -0.62260
O3434       O  0.72370718  0.54821912  0.98412270    -0.70670
O3435       O  0.67079152  0.54989479  0.98954156    -0.70220
O3436       O  0.67099895  0.95158245  0.51037471    -0.61470
O3437       O  0.67181330  0.51134102  0.54948859    -0.73980
O3438       O  0.67347691  0.99034085  0.95041700    -0.72760
Cu3439     Cu  0.72522892  0.00095831  0.00073762     1.04560
Cu3440     Cu  0.66983397  0.00075916  0.99993753     1.04330
C3441       C  0.70046267  0.98283198  0.93609015     0.93540
C3442       C  0.69823303  0.51906618  0.56465887     0.92680
C3443       C  0.69753469  0.93720594  0.51817439     0.84830
C3444       C  0.69747173  0.56434511  0.98231561     0.91100
C3445       C  0.84726035  0.94426523  0.77878141     0.03420
C3446       C  0.84719962  0.92280053  0.80448425    -0.12730
C3447       C  0.87295052  0.92171121  0.82573174     0.00920
C3448       C  0.89899817  0.94254714  0.82378754    -0.11260
C3449       C  0.90233525  0.96339812  0.79766818     0.03410
C3450       C  0.87649473  0.96322833  0.77350462    -0.10680
H3451       H  0.82645269  0.90690124  0.80874375     0.09000
H3452       H  0.91799775  0.94053522  0.84201379     0.06530
H3453       H  0.87953574  0.47505774  0.75054833     0.06380
C3454       C  0.96735431  0.59635752  0.79917749     0.03420
C3455       C  0.94940375  0.60120131  0.82717711    -0.12730
C3456       C  0.92904573  0.62750376  0.83022126     0.00920
C3457       C  0.92887296  0.65301580  0.80873158    -0.11260
C3458       C  0.94815270  0.65223487  0.78142028     0.03410
C3459       C  0.96622082  0.62230973  0.77491259    -0.10680
H3460       H  0.94794848  0.58249000  0.84579922     0.09000
H3461       H  0.91306273  0.67375458  0.81352794     0.06530
H3462       H  0.47700897  0.61891222  0.75141378     0.06380
C3463       C  0.53013792  0.90058461  0.80574674     0.03420
C3464       C  0.52495743  0.87143889  0.78664575    -0.12730
C3465       C  0.54868243  0.84528105  0.78717696     0.00920
C3466       C  0.57440878  0.84822747  0.80850127    -0.11260
C3467       C  0.57643598  0.87453163  0.82903808     0.03410
C3468       C  0.55532763  0.90046826  0.82770797    -0.10680
H3469       H  0.00247634  0.86871573  0.77389306     0.09000
H3470       H  0.59244463  0.82898386  0.81075500     0.06530
H3471       H  0.55956500  0.92138529  0.84346990     0.06380
O3472       O  0.95244709  0.98034985  0.77191337    -0.72660
O3473       O  0.54735130  0.51258034  0.77601930    -0.73640
O3474       O  0.51497752  0.94897638  0.77642853    -0.62260
O3475       O  0.98388850  0.54531746  0.77259745    -0.70670
O3476       O  0.98886173  0.54777875  0.82522550    -0.70220
O3477       O  0.50701542  0.94933326  0.82909879    -0.61470
O3478       O  0.54788631  0.50853625  0.82894847    -0.73980
O3479       O  0.94874820  0.98858211  0.82434594    -0.72760
Cu3480     Cu  0.99974827  0.99677205  0.77337207     1.04560
Cu3481     Cu  0.99801702  0.99860339  0.82879820     1.04330
C3482       C  0.93530702  0.97978830  0.79739704     0.93540
C3483       C  0.56314684  0.51489434  0.80234800     0.92680
C3484       C  0.51452670  0.93358425  0.80315510     0.84830
C3485       C  0.98204977  0.56217172  0.79834153     0.91100
C3486       C  0.78444159  0.55442588  0.84804961     0.03420
C3487       C  0.77790108  0.53687411  0.87779984    -0.12730
C3488       C  0.80226918  0.53524116  0.90322283     0.00920
C3489       C  0.83017631  0.55368696  0.89902460    -0.11260
C3490       C  0.83355913  0.57389761  0.87255427     0.03410
C3491       C  0.81214196  0.57348160  0.84685542    -0.10680
H3492       H  0.75400750  0.02714828  0.88162724     0.09000
H3493       H  0.84831388  0.55524094  0.91813941     0.06530
H3494       H  0.81701213  0.58883056  0.82589294     0.06380
C3495       C  0.71457914  0.55176849  0.65538618     0.03420
C3496       C  0.68631495  0.57008458  0.65684543    -0.12730
C3497       C  0.66471854  0.56995120  0.63122524     0.00920
C3498       C  0.66772248  0.54886802  0.60527503    -0.11260
C3499       C  0.69668633  0.53279532  0.59936083     0.03410
C3500       C  0.72152894  0.53527287  0.62471109    -0.10680
H3501       H  0.68154017  0.58586725  0.67755746     0.09000
H3502       H  0.64888809  0.54964219  0.58680718     0.06530
H3503       H  0.74597240  0.02735306  0.62017047     0.06380
C3504       C  0.59543551  0.53288608  0.80266321     0.03420
C3505       C  0.62549605  0.52644186  0.78490296    -0.12730
C3506       C  0.65092898  0.55130201  0.78287015     0.00920
C3507       C  0.64501518  0.58037017  0.79909598    -0.11260
C3508       C  0.61889274  0.58358834  0.81987893     0.03410
C3509       C  0.59391640  0.56124114  0.82088803    -0.10680
H3510       H  0.62925188  0.00257266  0.77470974     0.09000
H3511       H  0.66337599  0.59942887  0.79980971     0.06530
H3512       H  0.57333629  0.56587147  0.83683912     0.06380
O3513       O  0.75963430  0.57967549  0.80105832    -0.72660
O3514       O  0.73949255  0.57876607  0.70212295    -0.73640
O3515       O  0.70032363  0.57677030  0.76161621    -0.62260
O3516       O  0.79947174  0.58003605  0.74222510    -0.70670
O3517       O  0.79910037  0.52686721  0.73764424    -0.70220
O3518       O  0.70214169  0.52384401  0.76795945    -0.61470
O3519       O  0.73546751  0.52557836  0.70404828    -0.73980
O3520       O  0.76566138  0.52651874  0.80017131    -0.72760
Cu3521     Cu  0.74967219  0.58064499  0.75175322     1.04560
Cu3522     Cu  0.75065733  0.52459520  0.75243320     1.04330
C3523       C  0.76688140  0.55314654  0.81597639     0.93540
C3524       C  0.73294923  0.55173119  0.68757830     0.92680
C3525       C  0.68556581  0.54996323  0.76899033     0.84830
C3526       C  0.81507592  0.55340115  0.73630254     0.91100
C3527       C  0.65186250  0.94787051  0.71775370     0.03420
C3528       C  0.64572828  0.91818184  0.70263050    -0.12730
C3529       C  0.61964333  0.91450151  0.68196386     0.00920
C3530       C  0.59528626  0.93733788  0.67987549    -0.11260
C3531       C  0.59755600  0.96641335  0.69675423     0.03410
C3532       C  0.62730069  0.97306998  0.71443322    -0.10680
H3533       H  0.66391630  0.89897195  0.70255593     0.09000
H3534       H  0.57466936  0.93255602  0.66404800     0.06530
H3535       H  0.63155023  0.49727948  0.72366642     0.06380
C3536       C  0.95090651  0.84807681  0.71611774     0.03420
C3537       C  0.92293533  0.85296640  0.69832953    -0.12730
C3538       C  0.92014482  0.87928797  0.67802847     0.00920
C3539       C  0.94138606  0.90513938  0.67852490    -0.11260
C3540       C  0.96879663  0.90422706  0.69764539     0.03410
C3541       C  0.97546495  0.87390570  0.71477249    -0.10680
H3542       H  0.90434270  0.83416117  0.69677852     0.09000
H3543       H  0.93657361  0.92604000  0.66302260     0.06530
H3544       H  0.49946345  0.87006432  0.72419871     0.06380
C3545       C  0.90439365  0.53581316  0.70133760     0.03420
C3546       C  0.87823606  0.53607747  0.72560723    -0.12730
C3547       C  0.84846065  0.55459372  0.72006534     0.00920
C3548       C  0.84844726  0.57554540  0.69403536    -0.11260
C3549       C  0.87418511  0.57652686  0.67265588     0.03410
C3550       C  0.90058621  0.55617423  0.67488891    -0.10680
H3551       H  0.88159525  0.02482608  0.74881466     0.09000
H3552       H  0.82766226  0.59131931  0.68964570     0.06530
H3553       H  0.91948903  0.55826033  0.65653010     0.06380
C3554       C  0.55356438  0.65440348  0.71508089     0.03420
C3555       C  0.57121939  0.65636829  0.68656557    -0.12730
C3556       C  0.56993084  0.63136080  0.66427932     0.00920
C3557       C  0.54910881  0.60526574  0.66768568    -0.11260
C3558       C  0.53354504  0.59953136  0.69699927     0.03410
C3559       C  0.53635385  0.62444853  0.72186755    -0.10680
H3560       H  0.58701173  0.67712483  0.68190698     0.09000
H3561       H  0.54951368  0.58669709  0.64879741     0.06530
H3562       H  0.02739077  0.62033147  0.74605346     0.06380
O3563       O  0.55092202  0.99129450  0.67049102    -0.72660
O3564       O  0.95183139  0.51180284  0.67422231    -0.73640
O3565       O  0.51131114  0.55040098  0.67302336    -0.62260
O3566       O  0.99185915  0.95186920  0.67125123    -0.70670
O3567       O  0.98763119  0.95354411  0.72415724    -0.70220
O3568       O  0.51942060  0.54954398  0.72557260    -0.61470
O3569       O  0.95498985  0.51805195  0.72672314    -0.73980
O3570       O  0.55010513  0.98625802  0.72344279    -0.72760
Cu3571     Cu  0.00141396  0.50141618  0.67034611     1.04560
Cu3572     Cu  0.00305172  0.00183851  0.72581925     1.04330
C3573       C  0.56586873  0.98455547  0.69707823     0.93540
C3574       C  0.93793479  0.51967419  0.70127546     0.92680
C3575       C  0.51966648  0.56542031  0.69921409     0.84830
C3576       C  0.98592163  0.93700115  0.69806416     0.91100
C3577       C  0.87331097  0.60007054  0.64768062     0.03420
C3578       C  0.84734187  0.59974359  0.62668432    -0.12730
C3579       C  0.84444451  0.62472064  0.60470638     0.00920
C3580       C  0.86717240  0.64966054  0.60284049    -0.11260
C3581       C  0.89293836  0.64936645  0.62419137     0.03410
C3582       C  0.89642492  0.62463381  0.64682433    -0.10680
H3583       H  0.82931995  0.58035149  0.62765914     0.09000
H3584       H  0.86503524  0.66881126  0.58476530     0.06530
H3585       H  0.91654685  0.62479948  0.66389068     0.06380
C3586       C  0.89729134  0.87747060  0.65258936     0.03420
C3587       C  0.89893093  0.85169938  0.63068745    -0.12730
C3588       C  0.87648893  0.85038864  0.60587466     0.00920
C3589       C  0.85318712  0.87456588  0.60235250    -0.11260
C3590       C  0.85259690  0.89993124  0.62456963     0.03410
C3591       C  0.87458716  0.90181911  0.64964489    -0.10680
H3592       H  0.91741492  0.83292663  0.63295247     0.09000
H3593       H  0.83541689  0.87339530  0.58288256     0.06530
H3594       H  0.87356428  0.92169654  0.66715284     0.06380
C3595       C  0.65179857  0.87736979  0.60751966     0.03420
C3596       C  0.63033983  0.85165923  0.60229253    -0.12730
C3597       C  0.60565173  0.84653400  0.62442445     0.00920
C3598       C  0.60148589  0.86720468  0.65099014    -0.11260
C3599       C  0.62328439  0.89237919  0.65555594     0.03410
C3600       C  0.64838201  0.89799770  0.63370252    -0.10680
H3601       H  0.63331049  0.83538417  0.58163071     0.09000
H3602       H  0.58168084  0.86355793  0.66808205     0.06530
H3603       H  0.66527788  0.91808704  0.63721284     0.06380
C3604       C  0.64759469  0.90267716  0.87332072     0.03420
C3605       C  0.62428103  0.90025649  0.84963053    -0.12730
C3606       C  0.60177391  0.87557516  0.85195156     0.00920
C3607       C  0.60235232  0.85325689  0.87706588    -0.11260
C3608       C  0.62620719  0.85625570  0.90062206     0.03410
C3609       C  0.64922074  0.88072030  0.89892384    -0.10680
H3610       H  0.62328330  0.91779325  0.82987492     0.09000
H3611       H  0.58427288  0.83396429  0.87839320     0.06530
H3612       H  0.66806058  0.88273249  0.91728191     0.06380
C3613       C  0.65285443  0.62313352  0.89241991     0.03420
C3614       C  0.63103384  0.64846395  0.89783025    -0.12730
C3615       C  0.60518767  0.65212021  0.87687014     0.00920
C3616       C  0.60029473  0.63054064  0.85119443    -0.11260
C3617       C  0.62240546  0.60569405  0.84639288     0.03410
C3618       C  0.64857913  0.60139596  0.86723077    -0.10680
H3619       H  0.63441673  0.66542979  0.91786173     0.09000
H3620       H  0.57986768  0.63345759  0.83476448     0.06530
H3621       H  0.66569157  0.58152649  0.86363475     0.06380
C3622       C  0.90395841  0.62582736  0.85350105     0.03420
C3623       C  0.90107550  0.65033223  0.87616354    -0.12730
C3624       C  0.87583799  0.64877938  0.89812729     0.00920
C3625       C  0.85347343  0.62353268  0.89748364    -0.11260
C3626       C  0.85696083  0.59932353  0.87413561     0.03410
C3627       C  0.88191632  0.60027591  0.85184731    -0.10680
H3628       H  0.91861668  0.67016269  0.87702660     0.09000
H3629       H  0.83384585  0.62253691  0.91514263     0.06530
H3630       H  0.88405246  0.58148655  0.83330091     0.06380
C3631       C  0.84596836  0.87552814  0.89625027     0.03420
C3632       C  0.86844644  0.85036257  0.89757762    -0.12730
C3633       C  0.89289246  0.84949303  0.87462553     0.00920
C3634       C  0.89526980  0.87341776  0.85096967    -0.11260
C3635       C  0.87236478  0.89816180  0.85065333     0.03410
C3636       C  0.84767694  0.89956750  0.87313584    -0.10680
H3637       H  0.86699122  0.83179817  0.91632255     0.09000
H3638       H  0.91456194  0.87270436  0.83293309     0.06530
H3639       H  0.82977088  0.91905464  0.87247329     0.06380
C3640       C  0.64347245  0.59709005  0.62714024     0.03420
C3641       C  0.64821646  0.61769517  0.60066803    -0.12730
C3642       C  0.62635098  0.64269391  0.59550037     0.00920
C3643       C  0.60063301  0.64809514  0.61677801    -0.11260
C3644       C  0.59661063  0.62734722  0.64272706     0.03410
C3645       C  0.61816244  0.60195814  0.64851742    -0.10680
H3646       H  0.66833943  0.61393366  0.58396872     0.09000
H3647       H  0.58368273  0.66803316  0.61296308     0.06530
H3648       H  0.61481226  0.58570564  0.66907423     0.06380
loop_ 
_geom_bond_atom_site_label_1 
_geom_bond_atom_site_label_2 
_geom_bond_distance 
_geom_bond_site_symmetry_2 
_ccdc_geom_bond_type 
O1           Cu9   2.060       .  S
O1           C11   1.282       .  A
O2           Cu9   2.054       .  S
O2           C12   1.285       .  A
O3           Cu9   2.072       .  S
O3           C13   1.290       .  A
O4           Cu9   2.080       .  S
O4           C14   1.290       .  A
O5          Cu10   2.107       .  S
O5           C14   1.267       .  A
O6          Cu10   2.086       .  S
O6           C13   1.267       .  A
O7          Cu10   2.056       .  S
O7           C12   1.260       .  A
O8          Cu10   2.043       .  S
O8           C11   1.266       .  A
Cu9         Cu10   2.270       .  S
C11         C362   1.495       .  S
C12         C273   1.504       .  S
C13          C68   1.527       .  S
C14         C118   1.541       .  S
O15         Cu23   2.050       .  S
O15          C25   1.286       .  A
O16         Cu23   2.057       .  S
O16          C26   1.284       .  A
O17         Cu23   2.084       .  S
O17          C27   1.287       .  A
O18         Cu23   2.068       .  S
O18          C28   1.286       .  A
O19         Cu24   2.059       .  S
O19          C28   1.269       .  A
O20         Cu24   2.085       .  S
O20          C27   1.271       .  A
O21         Cu24   2.071       .  S
O21          C26   1.270       .  A
O22         Cu24   2.080       .  S
O22          C25   1.269       .  A
Cu23        Cu24   2.294       .  S
C25         C335   1.520       .  S
C26         C253   1.509       .  S
C27         C230   1.525       .  S
C28         C189   1.507       .  S
O29         Cu37   2.048       .  S
O29          C39   1.285       .  A
O30         Cu37   2.063       .  S
O30          C40   1.286       .  A
O31         Cu37   2.073       .  S
O31          C41   1.290       .  A
O32         Cu37   2.080       .  S
O32          C42   1.287       .  A
O33         Cu38   2.061       .  S
O33          C42   1.267       .  A
O34         Cu38   2.080       .  S
O34          C41   1.262       .  A
O35         Cu38   2.092       .  S
O35          C40   1.267       .  A
O36         Cu38   2.062       .  S
O36          C39   1.265       .  A
Cu37        Cu38   2.269       .  S
C39          C77   1.506       .  S
C40         C109   1.524       .  S
C41         C344   1.524       .  S
C42         C266   1.512       .  S
O43         Cu51   2.074       .  S
O43          C53   1.288       .  A
O44         Cu51   2.077       .  S
O44          C54   1.285       .  A
O45         Cu51   2.056       .  S
O45          C55   1.286       .  A
O46         Cu51   2.049       .  S
O46          C56   1.286       .  A
O47         Cu52   2.067       .  S
O47          C56   1.264       .  A
O48         Cu52   2.083       .  S
O48          C55   1.263       .  A
O49         Cu52   2.061       .  S
O49          C54   1.267       .  A
O50         Cu52   2.087       .  S
O50          C53   1.266       .  A
Cu51        Cu52   2.271       .  S
C53         C100   1.525       .  S
C54          C57   1.509       .  S
C55         C173   1.521       .  S
C56         C212   1.512       .  S
C57          C58   1.383       .  A
C57          C62   1.452       .  A
C58          C59   1.376       .  A
C58          H63   1.086       .  S
C59         C450   1.426       .  S
C59          C60   1.379       .  A
C60          C61   1.387       .  A
C60          H64   1.086       .  S
C61          C94   1.527       .  S
C61          C62   1.455       .  A
C62         H521   1.074       .  S
H65         C518   1.074       .  S
C66          C97   1.517       .  S
C66          C67   1.453       .  A
C66          C71   1.385       .  A
C67          C68   1.458       .  A
C67        H1896   1.072       .  S
C68          C69   1.383       .  A
C69          C70   1.377       .  A
C69          H73   1.086       .  S
C70         C423   1.424       .  S
C70          C71   1.377       .  A
C71          H74   1.086       .  S
H72        C1891   1.072       .  S
C75          C96   1.498       .  S
C75          C76   1.441       .  A
C75          C80   1.382       .  A
C76          C77   1.445       .  A
C76        H1905   1.070       .  S
C77          C78   1.384       .  A
C78          C79   1.376       .  A
C78          H82   1.086       .  S
C79         C389   1.419       .  S
C79          C80   1.376       .  A
C80          H83   1.086       .  S
H81        C1900   1.070       .  S
O84       Cu2372   2.087   1_455  S
O84          C94   1.270       .  A
O85         Cu92   2.078       .  S
O85          C95   1.271       .  A
O86        Cu548   2.052       .  S
O86          C96   1.269       .  A
O87       Cu1916   2.077   1_455  S
O87          C97   1.272       .  A
O88       Cu1917   2.074   1_455  S
O88          C97   1.285       .  A
O89        Cu549   2.056       .  S
O89          C96   1.283       .  A
O90         Cu93   2.068       .  S
O90          C95   1.286       .  A
O91       Cu2373   2.060   1_455  S
O91          C94   1.288       .  A
Cu92       O2364   2.087       .  S
Cu92        O542   2.052       .  S
Cu92       O1911   2.077       .  S
Cu92        Cu93   2.300       .  S
Cu93       O1912   2.074       .  S
Cu93        O545   2.056       .  S
Cu93       O2371   2.060       .  S
C95         C139   1.518       .  S
C98         C135   1.516       .  S
C98          C99   1.453       .  A
C98         C103   1.382       .  A
C99         C100   1.458       .  A
C99         H560   1.073       .  S
C100        C101   1.385       .  A
C101        C102   1.377       .  A
C101        H105   1.086       .  S
C102        C396   1.422       .  S
C102        C103   1.376       .  A
C103        H106   1.086       .  S
H104        C555   1.073       .  S
C107        C137   1.516       .  S
C107        C108   1.453       .  A
C107        C112   1.382       .  A
C108        C109   1.456       .  A
C108       H1937   1.071       .  S
C109        C110   1.385       .  A
C110        C111   1.377       .  A
C110        H114   1.086       .  S
C111        C441   1.422       .  S
C111        C112   1.378       .  A
C112        H115   1.086       .  S
H113       C1932   1.071       .  S
C116        C138   1.530       .  S
C116        C117   1.463       .  A
C116        C121   1.384       .  A
C117        C118   1.466       .  A
C117       H1946   1.072       .  S
C118        C119   1.383       .  A
C119        C120   1.378       .  A
C119        H123   1.086       .  S
C120        C405   1.426       .  S
C120        C121   1.378       .  A
C121        H124   1.086       .  S
H122       C1941   1.072       .  S
O125       Cu589   2.072   1_554  S
O125        C135   1.285       .  A
O126      Cu1957   2.063   1_455  S
O126        C136   1.288       .  A
O127       Cu133   2.082       .  S
O127        C137   1.288       .  A
O128      Cu2413   2.094   1_454  S
O128        C138   1.288       .  A
O129      Cu1958   2.090   1_454  S
O129        C138   1.273       .  A
O130       Cu590   2.070       .  S
O130        C137   1.271       .  A
O131      Cu2414   2.083   1_455  S
O131        C136   1.269       .  A
O132       Cu134   2.075   1_554  S
O132        C135   1.271       .  A
Cu133       O581   2.072       .  S
Cu133      O1950   2.063       .  S
Cu133      O2408   2.094       .  S
Cu133      Cu590   2.301       .  S
Cu134      O1953   2.090   1_556  S
Cu134       O586   2.070       .  S
Cu134      O2411   2.083       .  S
Cu134      Cu589   2.301       .  S
C136        C148   1.523       .  S
C139        C140   1.453       .  A
C139        C144   1.376       .  A
C140        C141   1.460       .  A
C140        H601   1.070       .  S
C141        C167   1.521       .  S
C141        C142   1.382       .  A
C142        C143   1.372       .  A
C142        H146   1.086       .  S
C143        C432   1.412       .  S
C143        C144   1.375       .  A
C144        H147   1.087       .  S
H145        C596   1.070       .  S
C148        C149   1.454       .  A
C148        C153   1.386       .  A
C149        C150   1.451       .  A
C149        H610   1.071       .  S
C150        C168   1.510       .  S
C150        C151   1.381       .  A
C151        C152   1.376       .  A
C151        H155   1.087       .  S
C152        C416   1.423       .  S
C152        C153   1.378       .  A
C153        H156   1.086       .  S
H154        C605   1.071       .  S
O157       Cu165   2.076       .  S
O157        C167   1.288       .  A
O158       Cu165   2.074       .  S
O158        C168   1.285       .  A
O159       Cu165   2.056       .  S
O159        C169   1.286       .  A
O160       Cu165   2.047       .  S
O160        C170   1.286       .  A
O161       Cu166   2.070       .  S
O161        C170   1.266       .  A
O162       Cu166   2.081       .  S
O162        C169   1.263       .  A
O163       Cu166   2.063       .  S
O163        C168   1.267       .  A
O164       Cu166   2.080       .  S
O164        C167   1.264       .  A
Cu165      Cu166   2.272       .  S
C169        C180   1.522       .  S
C170        C221   1.511       .  S
C171        C208   1.511       .  S
C171        C172   1.455       .  A
C171        C176   1.373       .  A
C172        C173   1.460       .  A
C172        H633   1.071       .  S
C173        C174   1.380       .  A
C174        C175   1.369       .  A
C174        H178   1.086       .  S
C175        C387   1.407       .  S
C175        C176   1.371       .  A
C176        H179   1.088       .  S
H177        C628   1.071       .  S
C180        C181   1.379       .  A
C180        C185   1.460       .  A
C181        C182   1.369       .  A
C181        H186   1.087       .  S
C182        C439   1.407       .  S
C182        C183   1.372       .  A
C183        C184   1.375       .  A
C183        H187   1.087       .  S
C184        C209   1.513       .  S
C184        C185   1.455       .  A
C185        H644   1.070       .  S
H188        C641   1.070       .  S
C189        C190   1.375       .  A
C189        C194   1.446       .  A
C190        C191   1.375       .  A
C190        H195   1.087       .  S
C191        C398   1.409       .  S
C191        C192   1.372       .  A
C192        C193   1.382       .  A
C192        H196   1.086       .  S
C193        C210   1.510       .  S
C193        C194   1.453       .  A
C194       H1109   1.067       .  S
H197       C1106   1.066       .  S
O198       Cu206   2.064   1_554  S
O198        C208   1.267       .  A
O199      Cu1574   2.069       .  S
O199        C209   1.269       .  A
O200      Cu1118   2.059   1_554  S
O200        C210   1.263       .  A
O201       Cu662   2.066       .  S
O201        C211   1.264       .  A
O202       Cu207   2.060       .  S
O202        C211   1.287       .  A
O203      Cu1575   2.061       .  S
O203        C210   1.287       .  A
O204      Cu1119   2.078       .  S
O204        C209   1.286       .  A
O205       Cu663   2.077       .  S
O205        C208   1.286       .  A
Cu206      O1567   2.069   1_545  S
Cu206      O1112   2.059   1_546  S
Cu206       O657   2.066       .  S
Cu206      Cu663   2.278   1_556  S
Cu207      O1571   2.061   1_545  S
Cu207      O1116   2.078   1_545  S
Cu207       O661   2.077       .  S
Cu207      Cu662   2.278       .  S
C211        C296   1.514       .  S
C212        C213   1.449       .  A
C212        C217   1.382       .  A
C213        C214   1.444       .  A
C213        H674   1.072       .  S
C214        C251   1.501       .  S
C214        C215   1.383       .  A
C215        C216   1.376       .  A
C215        H219   1.086       .  S
C216        C403   1.419       .  S
C216        C217   1.375       .  A
C217        H220   1.086       .  S
H218        C669   1.072       .  S
C221        C222   1.384       .  A
C221        C226   1.448       .  A
C222        C223   1.376       .  A
C222        H227   1.086       .  S
C223        C421   1.421       .  S
C223        C224   1.376       .  A
C224        C225   1.382       .  A
C224        H228   1.086       .  S
C225        C252   1.498       .  S
C225        C226   1.443       .  A
C226        H685   1.073       .  S
H229        C682   1.073       .  S
C230        C231   1.377       .  A
C230        C235   1.461       .  A
C231        C232   1.373       .  A
C231        H236   1.087       .  S
C232        C412   1.408       .  S
C232        C233   1.370       .  A
C233        C234   1.377       .  A
C233        H237   1.087       .  S
C234        C249   1.532       .  S
C234        C235   1.468       .  A
C235       H1150   1.070       .  S
H238       C1147   1.070       .  S
O239       Cu247   2.081       .  S
O239        C249   1.264       .  A
O240      Cu1615   2.086       .  S
O240        C250   1.266       .  A
O241       Cu703   2.059       .  S
O241        C251   1.269       .  A
O242      Cu1159   2.055       .  S
O242        C252   1.267       .  A
O243      Cu1160   2.058       .  S
O243        C252   1.281       .  A
O244       Cu704   2.061   1_554  S
O244        C251   1.282       .  A
O245      Cu1616   2.084   1_554  S
O245        C250   1.292       .  A
O246       Cu248   2.085       .  S
O246        C249   1.292       .  A
Cu247      O1608   2.086       .  S
Cu247       O697   2.059       .  S
Cu247      O1154   2.055       .  S
Cu247      Cu248   2.277       .  S
Cu248      O1155   2.058       .  S
Cu248       O700   2.061       .  S
Cu248      O1613   2.084       .  S
C250        C307   1.534       .  S
C253        C254   1.377       .  A
C253        C258   1.447       .  A
C254        C255   1.375       .  A
C254        H259   1.087       .  S
C255        C443   1.409       .  S
C255        C256   1.371       .  A
C256        C257   1.381       .  A
C256        H260   1.087       .  S
C257        C290   1.512       .  S
C257        C258   1.456       .  A
C258       H1173   1.069       .  S
H261       C1170   1.069       .  S
C262        C293   1.525       .  S
C262        C263   1.381       .  A
C262        C267   1.461       .  A
C263        C264   1.370       .  A
C263        H268   1.086       .  S
C264        C430   1.408       .  S
C264        C265   1.370       .  A
C265        C266   1.374       .  A
C265        H269   1.087       .  S
C266        C267   1.458       .  A
C267       H2094   1.072       .  S
H270       C2091   1.072       .  S
C271        C292   1.501       .  S
C271        C272   1.443       .  A
C271        C276   1.375       .  A
C272        C273   1.449       .  A
C272       H2101   1.069       .  S
C273        C274   1.380       .  A
C274        C275   1.370       .  A
C274        H278   1.087       .  S
C275        C414   1.406       .  S
C275        C276   1.373       .  A
C276        H279   1.087       .  S
H277       C2096   1.069       .  S
O280       Cu288   2.058       .  S
O280        C290   1.262       .  A
O281      Cu3024   2.064   1_445  S
O281        C291   1.267       .  A
O282      Cu2112   2.060   1_455  S
O282        C292   1.269       .  A
O283      Cu1200   2.093   1_545  S
O283        C293   1.265       .  A
O284      Cu1201   2.054   1_545  S
O284        C293   1.286       .  A
O285      Cu2113   2.052   1_455  S
O285        C292   1.283       .  A
O286      Cu3025   2.090   1_445  S
O286        C291   1.287       .  A
O287       Cu289   2.075       .  S
O287        C290   1.290       .  A
Cu288      O3017   2.064       .  S
Cu288      O2106   2.060       .  S
Cu288      O1195   2.093       .  S
Cu288      Cu289   2.282       .  S
Cu289      O1196   2.054       .  S
Cu289      O2109   2.052       .  S
Cu289      O3022   2.090       .  S
C291        C312   1.518       .  S
C294        C331   1.505       .  S
C294        C295   1.445       .  A
C294        C299   1.381       .  A
C295        C296   1.451       .  A
C295       H1212   1.072       .  S
C296        C297   1.384       .  A
C297        C298   1.376       .  A
C297        H301   1.086       .  S
C298        C434   1.419       .  S
C298        C299   1.377       .  A
C299        H302   1.087       .  S
H300       C1207   1.072       .  S
C303        C332   1.525       .  S
C303        C304   1.385       .  A
C303        C308   1.458       .  A
C304        C305   1.379       .  A
C304        H309   1.086       .  S
C305        C448   1.425       .  S
C305        C306   1.377       .  A
C306        C307   1.382       .  A
C306        H310   1.086       .  S
C307        C308   1.464       .  A
C308       H1223   1.072       .  S
H311       C1220   1.072       .  S
C312        C313   1.458       .  A
C312        C317   1.382       .  A
C313        C314   1.461       .  A
C313       H1230   1.074       .  S
C314        C333   1.534       .  S
C314        C315   1.385       .  A
C315        C316   1.378       .  A
C315        H319   1.086       .  S
C316        C425   1.423       .  S
C316        C317   1.376       .  A
C317        H320   1.086       .  S
H318       C1225   1.074       .  S
O321       Cu329   2.070       .  S
O321        C331   1.284       .  A
O322       Cu329   2.086       .  S
O322        C332   1.286       .  A
O323       Cu329   2.074       .  S
O323        C333   1.290       .  A
O324       Cu329   2.084       .  S
O324        C334   1.288       .  A
O325       Cu330   2.083       .  S
O325        C334   1.271       .  A
O326       Cu330   2.093       .  S
O326        C333   1.269       .  A
O327       Cu330   2.087       .  S
O327        C332   1.273       .  A
O328       Cu330   2.060       .  S
O328        C331   1.269       .  A
Cu329      Cu330   2.296       .  S
C334        C355   1.526       .  S
C335        C336   1.388       .  A
C335        C340   1.451       .  A
C336        C337   1.377       .  A
C336        H341   1.086       .  S
C337        C407   1.421       .  S
C337        C338   1.374       .  A
C338        C339   1.380       .  A
C338        H342   1.087       .  S
C339        C381   1.500       .  S
C339        C340   1.449       .  A
C340       H1255   1.075       .  S
H343       C1252   1.075       .  S
C344        C345   1.379       .  A
C344        C349   1.463       .  A
C345        C346   1.370       .  A
C345        H350   1.086       .  S
C346        C394   1.409       .  S
C346        C347   1.372       .  A
C347        C348   1.376       .  A
C347        H351   1.087       .  S
C348        C384   1.515       .  S
C348        C349   1.456       .  A
C349       H2176   1.072       .  S
H352       C2173   1.072       .  S
C353        C382   1.529       .  S
C353        C354   1.466       .  A
C353        C358   1.381       .  A
C354        C355   1.459       .  A
C354       H1271   1.071       .  S
C355        C356   1.374       .  A
C356        C357   1.375       .  A
C356        H360   1.087       .  S
C357        C385   1.411       .  S
C357        C358   1.372       .  A
C358        H361   1.086       .  S
H359       C1266   1.071       .  S
C362        C363   1.381       .  A
C362        C367   1.443       .  A
C363        C364   1.374       .  A
C363        H368   1.086       .  S
C364        C452   1.419       .  S
C364        C365   1.376       .  A
C365        C366   1.385       .  A
C365        H369   1.086       .  S
C366        C383   1.512       .  S
C366        C367   1.448       .  A
C367       H2194   1.074       .  S
H370       C2191   1.074       .  S
O371      Cu3115   2.077       .  S
O371        C381   1.286       .  A
O372       Cu379   2.088       .  S
O372        C382   1.290       .  A
O373      Cu2203   2.049       .  S
O373        C383   1.286       .  A
O374      Cu1291   2.068       .  S
O374        C384   1.284       .  A
O375       Cu380   2.077       .  S
O375        C384   1.270       .  A
O376      Cu3116   2.067       .  S
O376        C383   1.266       .  A
O377      Cu1292   2.085       .  S
O377        C382   1.263       .  A
O378      Cu2204   2.039       .  S
O378        C381   1.264       .  A
Cu379      O3107   2.077   1_545  S
Cu379      O2197   2.049       .  S
Cu379      O1286   2.068   1_545  S
Cu379     Cu1292   2.283       .  S
Cu380      O3112   2.066       .  S
Cu380      O1289   2.085       .  S
Cu380      O2202   2.039       .  S
Cu380     Cu1291   2.283       .  S
C385        C386   1.374       .  A
C385        C390   1.384       .  A
C386        C387   1.372       .  A
C386        H391   1.086       .  S
C387        C388   1.386       .  A
C388        C389   1.377       .  A
C388        H392   1.086       .  S
C389        C390   1.385       .  A
C390        H393   1.086       .  S
C394        C395   1.388       .  A
C394        C399   1.372       .  A
C395        C396   1.378       .  A
C395        H400   1.086       .  S
C396        C397   1.386       .  A
C397        C398   1.382       .  A
C397        H401   1.086       .  S
C398        C399   1.374       .  A
C399        H402   1.086       .  S
C403        C404   1.390       .  A
C403        C408   1.374       .  A
C404        C405   1.379       .  A
C404        H409   1.086       .  S
C405        C406   1.391       .  A
C406        C407   1.378       .  A
C406        H410   1.085       .  S
C407        C408   1.387       .  A
C408        H411   1.086       .  S
C412        C413   1.371       .  A
C412        C417   1.388       .  A
C413        C414   1.373       .  A
C413        H418   1.087       .  S
C414        C415   1.381       .  A
C415        C416   1.385       .  A
C415        H419   1.086       .  S
C416        C417   1.379       .  A
C417        H420   1.085       .  S
C421        C422   1.389       .  A
C421        C426   1.376       .  A
C422        C423   1.378       .  A
C422        H427   1.086       .  S
C423        C424   1.390       .  A
C424        C425   1.379       .  A
C424        H428   1.085       .  S
C425        C426   1.388       .  A
C426        H429   1.086       .  S
C430        C431   1.373       .  A
C430        C435   1.385       .  A
C431        C432   1.376       .  A
C431        H436   1.086       .  S
C432        C433   1.383       .  A
C433        C434   1.386       .  A
C433        H437   1.086       .  S
C434        C435   1.375       .  A
C435        H438   1.086       .  S
C439        C440   1.386       .  A
C439        C444   1.372       .  A
C440        C441   1.378       .  A
C440        H445   1.086       .  S
C441        C442   1.386       .  A
C442        C443   1.384       .  A
C442        H446   1.085       .  S
C443        C444   1.373       .  A
C444        H447   1.086       .  S
C448        C449   1.393       .  A
C448        C453   1.376       .  A
C449        C450   1.380       .  A
C449        H454   1.085       .  S
C450        C451   1.389       .  A
C451        C452   1.376       .  A
C451        H455   1.086       .  S
C452        C453   1.388       .  A
C453        H456   1.086       .  S
O457       Cu465   2.060       .  S
O457        C467   1.282       .  A
O458       Cu465   2.054       .  S
O458        C468   1.285       .  A
O459       Cu465   2.072       .  S
O459        C469   1.289       .  A
O460       Cu465   2.080       .  S
O460        C470   1.290       .  A
O461       Cu466   2.107       .  S
O461        C470   1.267       .  A
O462       Cu466   2.086       .  S
O462        C469   1.267       .  A
O463       Cu466   2.056       .  S
O463        C468   1.260       .  A
O464       Cu466   2.043       .  S
O464        C467   1.266       .  A
Cu465      Cu466   2.270       .  S
C467        C818   1.495       .  S
C468        C729   1.504       .  S
C469        C524   1.527       .  S
C470        C574   1.541       .  S
O471       Cu479   2.050       .  S
O471        C481   1.286       .  A
O472       Cu479   2.057       .  S
O472        C482   1.284       .  A
O473       Cu479   2.084       .  S
O473        C483   1.287       .  A
O474       Cu479   2.068       .  S
O474        C484   1.286       .  A
O475       Cu480   2.059       .  S
O475        C484   1.269       .  A
O476       Cu480   2.085       .  S
O476        C483   1.271       .  A
O477       Cu480   2.071       .  S
O477        C482   1.270       .  A
O478       Cu480   2.080       .  S
O478        C481   1.269       .  A
Cu479      Cu480   2.294       .  S
C481        C791   1.520       .  S
C482        C709   1.509       .  S
C483        C686   1.525       .  S
C484        C645   1.507       .  S
O485       Cu493   2.048       .  S
O485        C495   1.285       .  A
O486       Cu493   2.063       .  S
O486        C496   1.286       .  A
O487       Cu493   2.073       .  S
O487        C497   1.290       .  A
O488       Cu493   2.080       .  S
O488        C498   1.287       .  A
O489       Cu494   2.061       .  S
O489        C498   1.267       .  A
O490       Cu494   2.080       .  S
O490        C497   1.262       .  A
O491       Cu494   2.092       .  S
O491        C496   1.267       .  A
O492       Cu494   2.062       .  S
O492        C495   1.265       .  A
Cu493      Cu494   2.269       .  S
C495        C533   1.506       .  S
C496        C565   1.524       .  S
C497        C800   1.524       .  S
C498        C722   1.512       .  S
O499       Cu507   2.074       .  S
O499        C509   1.288       .  A
O500       Cu507   2.077       .  S
O500        C510   1.285       .  A
O501       Cu507   2.056       .  S
O501        C511   1.286       .  A
O502       Cu507   2.049       .  S
O502        C512   1.286       .  A
O503       Cu508   2.067       .  S
O503        C512   1.264       .  A
O504       Cu508   2.083       .  S
O504        C511   1.263       .  A
O505       Cu508   2.061       .  S
O505        C510   1.267       .  A
O506       Cu508   2.087       .  S
O506        C509   1.266       .  A
Cu507      Cu508   2.271       .  S
C509        C556   1.525       .  S
C510        C513   1.510       .  S
C511        C629   1.521       .  S
C512        C668   1.512       .  S
C513        C514   1.383       .  A
C513        C518   1.452       .  A
C514        C515   1.376       .  A
C514        H519   1.086       .  S
C515        C906   1.426       .  S
C515        C516   1.379       .  A
C516        C517   1.387       .  A
C516        H520   1.086       .  S
C517        C550   1.527       .  S
C517        C518   1.455       .  A
C522        C553   1.517       .  S
C522        C523   1.453       .  A
C522        C527   1.385       .  A
C523        C524   1.458       .  A
C523       H2352   1.073       .  S
C524        C525   1.383       .  A
C525        C526   1.377       .  A
C525        H529   1.086       .  S
C526        C879   1.424       .  S
C526        C527   1.377       .  A
C527        H530   1.086       .  S
H528       C2347   1.072       .  S
C531        C552   1.498       .  S
C531        C532   1.441       .  A
C531        C536   1.382       .  A
C532        C533   1.445       .  A
C532       H2361   1.070       .  S
C533        C534   1.384       .  A
C534        C535   1.376       .  A
C534        H538   1.086       .  S
C535        C845   1.419       .  S
C535        C536   1.376       .  A
C536        H539   1.086       .  S
H537       C2356   1.070       .  S
O540      Cu1916   2.087   1_455  S
O540        C550   1.270       .  A
O541       Cu548   2.078   1_556  S
O541        C551   1.271       .  A
O542        C552   1.269       .  A
O543      Cu2372   2.077   1_456  S
O543        C553   1.272       .  A
O544      Cu2373   2.074   1_456  S
O544        C553   1.285       .  A
O545        C552   1.283       .  A
O546       Cu549   2.068   1_556  S
O546        C551   1.286       .  A
O547      Cu1917   2.060   1_455  S
O547        C550   1.288       .  A
Cu548      O1908   2.087       .  S
Cu548      O2367   2.077   1_554  S
Cu548      Cu549   2.300       .  S
Cu549      O2368   2.074   1_554  S
Cu549      O1915   2.060       .  S
C551        C595   1.518       .  S
C554        C591   1.516       .  S
C554        C555   1.453       .  A
C554        C559   1.382       .  A
C555        C556   1.458       .  A
C556        C557   1.385       .  A
C557        C558   1.377       .  A
C557        H561   1.086       .  S
C558        C852   1.422       .  S
C558        C559   1.376       .  A
C559        H562   1.086       .  S
C563        C593   1.516       .  S
C563        C564   1.453       .  A
C563        C568   1.382       .  A
C564        C565   1.456       .  A
C564       H2393   1.071       .  S
C565        C566   1.385       .  A
C566        C567   1.377       .  A
C566        H570   1.086       .  S
C567        C897   1.422       .  S
C567        C568   1.378       .  A
C568        H571   1.086       .  S
H569       C2388   1.071       .  S
C572        C594   1.531       .  S
C572        C573   1.463       .  A
C572        C577   1.384       .  A
C573        C574   1.466       .  A
C573       H2402   1.072       .  S
C574        C575   1.383       .  A
C575        C576   1.378       .  A
C575        H579   1.086       .  S
C576        C861   1.426       .  S
C576        C577   1.378       .  A
C577        H580   1.086       .  S
H578       C2397   1.072       .  S
O581        C591   1.285       .  A
O582      Cu2413   2.063   1_455  S
O582        C592   1.288       .  A
O583       Cu589   2.082       .  S
O583        C593   1.288       .  A
O584      Cu1957   2.094   1_455  S
O584        C594   1.288       .  A
O585      Cu2414   2.090   1_455  S
O585        C594   1.273       .  A
O586        C593   1.271       .  A
O587      Cu1958   2.083   1_455  S
O587        C592   1.269       .  A
O588       Cu590   2.075       .  S
O588        C591   1.271       .  A
Cu589      O2406   2.063       .  S
Cu589      O1952   2.094   1_556  S
Cu590      O2409   2.090       .  S
Cu590      O1955   2.083       .  S
C592        C604   1.523       .  S
C595        C596   1.453       .  A
C595        C600   1.376       .  A
C596        C597   1.460       .  A
C597        C623   1.521       .  S
C597        C598   1.382       .  A
C598        C599   1.372       .  A
C598        H602   1.086       .  S
C599        C888   1.412       .  S
C599        C600   1.375       .  A
C600        H603   1.087       .  S
C604        C605   1.454       .  A
C604        C609   1.386       .  A
C605        C606   1.451       .  A
C606        C624   1.510       .  S
C606        C607   1.381       .  A
C607        C608   1.376       .  A
C607        H611   1.087       .  S
C608        C872   1.423       .  S
C608        C609   1.378       .  A
C609        H612   1.086       .  S
O613       Cu621   2.076       .  S
O613        C623   1.288       .  A
O614       Cu621   2.075       .  S
O614        C624   1.285       .  A
O615       Cu621   2.056       .  S
O615        C625   1.286       .  A
O616       Cu621   2.047       .  S
O616        C626   1.286       .  A
O617       Cu622   2.070       .  S
O617        C626   1.266       .  A
O618       Cu622   2.081       .  S
O618        C625   1.263       .  A
O619       Cu622   2.063       .  S
O619        C624   1.267       .  A
O620       Cu622   2.079       .  S
O620        C623   1.264       .  A
Cu621      Cu622   2.272       .  S
C625        C636   1.522       .  S
C626        C677   1.511       .  S
C627        C664   1.511       .  S
C627        C628   1.455       .  A
C627        C632   1.373       .  A
C628        C629   1.460       .  A
C629        C630   1.380       .  A
C630        C631   1.369       .  A
C630        H634   1.086       .  S
C631        C843   1.407       .  S
C631        C632   1.371       .  A
C632        H635   1.088       .  S
C636        C637   1.379       .  A
C636        C641   1.460       .  A
C637        C638   1.369       .  A
C637        H642   1.087       .  S
C638        C895   1.407       .  S
C638        C639   1.372       .  A
C639        C640   1.375       .  A
C639        H643   1.087       .  S
C640        C665   1.513       .  S
C640        C641   1.455       .  A
C645        C646   1.375       .  A
C645        C650   1.446       .  A
C646        C647   1.375       .  A
C646        H651   1.087       .  S
C647        C854   1.409       .  S
C647        C648   1.372       .  A
C648        C649   1.382       .  A
C648        H652   1.086       .  S
C649        C666   1.510       .  S
C649        C650   1.453       .  A
C650       H1565   1.066       .  S
H653       C1562   1.066       .  S
O654       Cu662   2.064       .  S
O654        C664   1.267       .  A
O655      Cu1118   2.069       .  S
O655        C665   1.269       .  A
O656      Cu1574   2.059       .  S
O656        C666   1.263       .  A
O657        C667   1.264       .  A
O658       Cu663   2.060   1_556  S
O658        C667   1.287       .  A
O659      Cu1119   2.062       .  S
O659        C666   1.287       .  A
O660      Cu1575   2.078   1_556  S
O660        C665   1.286       .  A
O661        C664   1.286       .  A
Cu662      O1111   2.069   1_545  S
Cu662      O1568   2.059   1_545  S
Cu663      O1115   2.062   1_545  S
Cu663      O1572   2.078   1_544  S
C667        C752   1.514       .  S
C668        C669   1.449       .  A
C668        C673   1.382       .  A
C669        C670   1.444       .  A
C670        C707   1.501       .  S
C670        C671   1.383       .  A
C671        C672   1.376       .  A
C671        H675   1.086       .  S
C672        C859   1.419       .  S
C672        C673   1.375       .  A
C673        H676   1.086       .  S
C677        C678   1.384       .  A
C677        C682   1.448       .  A
C678        C679   1.376       .  A
C678        H683   1.086       .  S
C679        C877   1.421       .  S
C679        C680   1.376       .  A
C680        C681   1.382       .  A
C680        H684   1.086       .  S
C681        C708   1.498       .  S
C681        C682   1.443       .  A
C686        C687   1.377       .  A
C686        C691   1.461       .  A
C687        C688   1.373       .  A
C687        H692   1.087       .  S
C688        C868   1.408       .  S
C688        C689   1.370       .  A
C689        C690   1.377       .  A
C689        H693   1.087       .  S
C690        C705   1.532       .  S
C690        C691   1.468       .  A
C691       H1606   1.070       .  S
H694       C1603   1.070       .  S
O695       Cu703   2.081   1_556  S
O695        C705   1.264       .  A
O696      Cu1159   2.086       .  S
O696        C706   1.266       .  A
O697        C707   1.269       .  A
O698      Cu1615   2.055   1_556  S
O698        C708   1.267       .  A
O699      Cu1616   2.057       .  S
O699        C708   1.281       .  A
O700        C707   1.282       .  A
O701      Cu1160   2.084       .  S
O701        C706   1.292       .  A
O702       Cu704   2.085       .  S
O702        C705   1.292       .  A
Cu703      O1152   2.086       .  S
Cu703      O1610   2.055   1_554  S
Cu703      Cu704   2.277   1_554  S
Cu704      O1611   2.058       .  S
Cu704      O1157   2.084   1_556  S
C706        C763   1.534       .  S
C709        C710   1.376       .  A
C709        C714   1.447       .  A
C710        C711   1.375       .  A
C710        H715   1.087       .  S
C711        C899   1.409       .  S
C711        C712   1.371       .  A
C712        C713   1.381       .  A
C712        H716   1.087       .  S
C713        C746   1.512       .  S
C713        C714   1.456       .  A
C714       H1629   1.069       .  S
H717       C1626   1.069       .  S
C718        C749   1.525       .  S
C718        C719   1.381       .  A
C718        C723   1.461       .  A
C719        C720   1.370       .  A
C719        H724   1.086       .  S
C720        C886   1.408       .  S
C720        C721   1.370       .  A
C721        C722   1.374       .  A
C721        H725   1.087       .  S
C722        C723   1.458       .  A
C723       H2550   1.072       .  S
H726       C2547   1.072       .  S
C727        C748   1.501       .  S
C727        C728   1.443       .  A
C727        C732   1.375       .  A
C728        C729   1.449       .  A
C728       H2557   1.069       .  S
C729        C730   1.380       .  A
C730        C731   1.370       .  A
C730        H734   1.087       .  S
C731        C870   1.406       .  S
C731        C732   1.373       .  A
C732        H735   1.087       .  S
H733       C2552   1.069       .  S
O736       Cu744   2.058       .  S
O736        C746   1.262       .  A
O737      Cu3480   2.064   1_445  S
O737        C747   1.267       .  A
O738      Cu2568   2.060   1_455  S
O738        C748   1.269       .  A
O739      Cu1656   2.093   1_545  S
O739        C749   1.265       .  A
O740      Cu1657   2.054   1_545  S
O740        C749   1.286       .  A
O741      Cu2569   2.052   1_455  S
O741        C748   1.283       .  A
O742      Cu3481   2.090   1_445  S
O742        C747   1.287       .  A
O743       Cu745   2.075       .  S
O743        C746   1.290       .  A
Cu744      O3473   2.064       .  S
Cu744      O2562   2.060       .  S
Cu744      O1651   2.093       .  S
Cu744      Cu745   2.282       .  S
Cu745      O1652   2.054       .  S
Cu745      O2565   2.052       .  S
Cu745      O3478   2.090       .  S
C747        C768   1.518       .  S
C750        C787   1.505       .  S
C750        C751   1.445       .  A
C750        C755   1.381       .  A
C751        C752   1.451       .  A
C751       H1668   1.072       .  S
C752        C753   1.384       .  A
C753        C754   1.376       .  A
C753        H757   1.086       .  S
C754        C890   1.419       .  S
C754        C755   1.377       .  A
C755        H758   1.087       .  S
H756       C1663   1.072       .  S
C759        C788   1.525       .  S
C759        C760   1.385       .  A
C759        C764   1.458       .  A
C760        C761   1.379       .  A
C760        H765   1.086       .  S
C761        C904   1.424       .  S
C761        C762   1.377       .  A
C762        C763   1.382       .  A
C762        H766   1.086       .  S
C763        C764   1.464       .  A
C764       H1679   1.072       .  S
H767       C1676   1.072       .  S
C768        C769   1.458       .  A
C768        C773   1.382       .  A
C769        C770   1.461       .  A
C769       H1686   1.074       .  S
C770        C789   1.534       .  S
C770        C771   1.385       .  A
C771        C772   1.378       .  A
C771        H775   1.086       .  S
C772        C881   1.423       .  S
C772        C773   1.376       .  A
C773        H776   1.086       .  S
H774       C1681   1.074       .  S
O777       Cu785   2.070       .  S
O777        C787   1.284       .  A
O778       Cu785   2.086       .  S
O778        C788   1.286       .  A
O779       Cu785   2.074       .  S
O779        C789   1.290       .  A
O780       Cu785   2.084       .  S
O780        C790   1.288       .  A
O781       Cu786   2.083       .  S
O781        C790   1.271       .  A
O782       Cu786   2.093       .  S
O782        C789   1.269       .  A
O783       Cu786   2.087       .  S
O783        C788   1.273       .  A
O784       Cu786   2.060       .  S
O784        C787   1.269       .  A
Cu785      Cu786   2.296       .  S
C790        C811   1.526       .  S
C791        C792   1.387       .  A
C791        C796   1.451       .  A
C792        C793   1.377       .  A
C792        H797   1.086       .  S
C793        C863   1.421       .  S
C793        C794   1.374       .  A
C794        C795   1.380       .  A
C794        H798   1.087       .  S
C795        C837   1.500       .  S
C795        C796   1.449       .  A
C796       H1711   1.075       .  S
H799       C1708   1.075       .  S
C800        C801   1.379       .  A
C800        C805   1.463       .  A
C801        C802   1.370       .  A
C801        H806   1.086       .  S
C802        C850   1.409       .  S
C802        C803   1.372       .  A
C803        C804   1.376       .  A
C803        H807   1.087       .  S
C804        C840   1.515       .  S
C804        C805   1.456       .  A
C805       H2632   1.072       .  S
H808       C2629   1.072       .  S
C809        C838   1.529       .  S
C809        C810   1.466       .  A
C809        C814   1.381       .  A
C810        C811   1.459       .  A
C810       H1727   1.071       .  S
C811        C812   1.374       .  A
C812        C813   1.375       .  A
C812        H816   1.087       .  S
C813        C841   1.411       .  S
C813        C814   1.372       .  A
C814        H817   1.086       .  S
H815       C1722   1.071       .  S
C818        C819   1.381       .  A
C818        C823   1.443       .  A
C819        C820   1.374       .  A
C819        H824   1.086       .  S
C820        C908   1.419       .  S
C820        C821   1.376       .  A
C821        C822   1.385       .  A
C821        H825   1.086       .  S
C822        C839   1.512       .  S
C822        C823   1.448       .  A
C823       H2650   1.074       .  S
H826       C2647   1.074       .  S
O827      Cu3571   2.077       .  S
O827        C837   1.286       .  A
O828       Cu835   2.088       .  S
O828        C838   1.290       .  A
O829      Cu2659   2.050       .  S
O829        C839   1.286       .  A
O830      Cu1747   2.068       .  S
O830        C840   1.284       .  A
O831       Cu836   2.077       .  S
O831        C840   1.270       .  A
O832      Cu3572   2.067       .  S
O832        C839   1.266       .  A
O833      Cu1748   2.085       .  S
O833        C838   1.263       .  A
O834      Cu2660   2.039       .  S
O834        C837   1.264       .  A
Cu835      O3563   2.077   1_545  S
Cu835      O2653   2.049       .  S
Cu835      O1742   2.068   1_545  S
Cu835     Cu1748   2.283       .  S
Cu836      O3568   2.066       .  S
Cu836      O1745   2.085       .  S
Cu836      O2658   2.039       .  S
Cu836     Cu1747   2.283       .  S
C841        C842   1.374       .  A
C841        C846   1.384       .  A
C842        C843   1.372       .  A
C842        H847   1.086       .  S
C843        C844   1.386       .  A
C844        C845   1.377       .  A
C844        H848   1.086       .  S
C845        C846   1.385       .  A
C846        H849   1.086       .  S
C850        C851   1.388       .  A
C850        C855   1.372       .  A
C851        C852   1.378       .  A
C851        H856   1.086       .  S
C852        C853   1.386       .  A
C853        C854   1.382       .  A
C853        H857   1.086       .  S
C854        C855   1.374       .  A
C855        H858   1.086       .  S
C859        C860   1.390       .  A
C859        C864   1.374       .  A
C860        C861   1.379       .  A
C860        H865   1.086       .  S
C861        C862   1.391       .  A
C862        C863   1.378       .  A
C862        H866   1.085       .  S
C863        C864   1.387       .  A
C864        H867   1.086       .  S
C868        C869   1.371       .  A
C868        C873   1.388       .  A
C869        C870   1.373       .  A
C869        H874   1.087       .  S
C870        C871   1.381       .  A
C871        C872   1.385       .  A
C871        H875   1.086       .  S
C872        C873   1.379       .  A
C873        H876   1.085       .  S
C877        C878   1.389       .  A
C877        C882   1.376       .  A
C878        C879   1.378       .  A
C878        H883   1.086       .  S
C879        C880   1.390       .  A
C880        C881   1.379       .  A
C880        H884   1.085       .  S
C881        C882   1.388       .  A
C882        H885   1.086       .  S
C886        C887   1.373       .  A
C886        C891   1.385       .  A
C887        C888   1.376       .  A
C887        H892   1.086       .  S
C888        C889   1.383       .  A
C889        C890   1.386       .  A
C889        H893   1.086       .  S
C890        C891   1.375       .  A
C891        H894   1.086       .  S
C895        C896   1.386       .  A
C895        C900   1.372       .  A
C896        C897   1.378       .  A
C896        H901   1.086       .  S
C897        C898   1.386       .  A
C898        C899   1.384       .  A
C898        H902   1.085       .  S
C899        C900   1.373       .  A
C900        H903   1.087       .  S
C904        C905   1.393       .  A
C904        C909   1.376       .  A
C905        C906   1.380       .  A
C905        H910   1.085       .  S
C906        C907   1.389       .  A
C907        C908   1.376       .  A
C907        H911   1.086       .  S
C908        C909   1.388       .  A
C909        H912   1.086       .  S
O913       Cu921   2.060       .  S
O913        C923   1.282       .  A
O914       Cu921   2.054       .  S
O914        C924   1.285       .  A
O915       Cu921   2.072       .  S
O915        C925   1.289       .  A
O916       Cu921   2.080       .  S
O916        C926   1.290       .  A
O917       Cu922   2.107       .  S
O917        C926   1.267       .  A
O918       Cu922   2.086       .  S
O918        C925   1.267       .  A
O919       Cu922   2.056       .  S
O919        C924   1.260       .  A
O920       Cu922   2.043       .  S
O920        C923   1.266       .  A
Cu921      Cu922   2.270       .  S
C923       C1274   1.495       .  S
C924       C1185   1.504       .  S
C925        C980   1.527       .  S
C926       C1030   1.541       .  S
O927       Cu935   2.050       .  S
O927        C937   1.286       .  A
O928       Cu935   2.057       .  S
O928        C938   1.284       .  A
O929       Cu935   2.084       .  S
O929        C939   1.287       .  A
O930       Cu935   2.068       .  S
O930        C940   1.286       .  A
O931       Cu936   2.059       .  S
O931        C940   1.269       .  A
O932       Cu936   2.085       .  S
O932        C939   1.271       .  A
O933       Cu936   2.071       .  S
O933        C938   1.270       .  A
O934       Cu936   2.080       .  S
O934        C937   1.269       .  A
Cu935      Cu936   2.294       .  S
C937       C1247   1.520       .  S
C938       C1165   1.509       .  S
C939       C1142   1.525       .  S
C940       C1101   1.507       .  S
O941       Cu949   2.048       .  S
O941        C951   1.285       .  A
O942       Cu949   2.063       .  S
O942        C952   1.286       .  A
O943       Cu949   2.073       .  S
O943        C953   1.290       .  A
O944       Cu949   2.080       .  S
O944        C954   1.287       .  A
O945       Cu950   2.061       .  S
O945        C954   1.267       .  A
O946       Cu950   2.080       .  S
O946        C953   1.262       .  A
O947       Cu950   2.092       .  S
O947        C952   1.267       .  A
O948       Cu950   2.062       .  S
O948        C951   1.265       .  A
Cu949      Cu950   2.269       .  S
C951        C989   1.506       .  S
C952       C1021   1.524       .  S
C953       C1256   1.524       .  S
C954       C1178   1.512       .  S
O955       Cu963   2.074       .  S
O955        C965   1.288       .  A
O956       Cu963   2.077       .  S
O956        C966   1.285       .  A
O957       Cu963   2.056       .  S
O957        C967   1.286       .  A
O958       Cu963   2.049       .  S
O958        C968   1.286       .  A
O959       Cu964   2.067       .  S
O959        C968   1.264       .  A
O960       Cu964   2.083       .  S
O960        C967   1.263       .  A
O961       Cu964   2.061       .  S
O961        C966   1.267       .  A
O962       Cu964   2.087       .  S
O962        C965   1.266       .  A
Cu963      Cu964   2.271       .  S
C965       C1012   1.525       .  S
C966        C969   1.510       .  S
C967       C1085   1.521       .  S
C968       C1124   1.512       .  S
C969        C970   1.383       .  A
C969        C974   1.452       .  A
C970        C971   1.376       .  A
C970        H975   1.086       .  S
C971       C1362   1.426       .  S
C971        C972   1.379       .  A
C972        C973   1.387       .  A
C972        H976   1.086       .  S
C973       C1006   1.527       .  S
C973        C974   1.455       .  A
C974       H1433   1.074       .  S
H977       C1430   1.074       .  S
C978       C1009   1.517       .  S
C978        C979   1.453       .  A
C978        C983   1.385       .  A
C979        C980   1.458       .  A
C979       H2808   1.072       .  S
C980        C981   1.383       .  A
C981        C982   1.377       .  A
C981        H985   1.086       .  S
C982       C1335   1.424       .  S
C982        C983   1.377       .  A
C983        H986   1.086       .  S
H984       C2803   1.072       .  S
C987       C1008   1.498       .  S
C987        C988   1.441       .  A
C987        C992   1.382       .  A
C988        C989   1.445       .  A
C988       H2817   1.070       .  S
C989        C990   1.384       .  A
C990        C991   1.376       .  A
C990        H994   1.086       .  S
C991       C1301   1.419       .  S
C991        C992   1.376       .  A
C992        H995   1.086       .  S
H993       C2812   1.070       .  S
O996      Cu3284   2.087   1_455  S
O996       C1006   1.270       .  A
O997      Cu1004   2.078       .  S
O997       C1007   1.271       .  A
O998      Cu1460   2.052       .  S
O998       C1008   1.269       .  A
O999      Cu2828   2.077   1_455  S
O999       C1009   1.272       .  A
O1000     Cu2829   2.074   1_455  S
O1000      C1009   1.285       .  A
O1001     Cu1461   2.056       .  S
O1001      C1008   1.283       .  A
O1002     Cu1005   2.068       .  S
O1002      C1007   1.286       .  A
O1003     Cu3285   2.060   1_455  S
O1003      C1006   1.288       .  A
Cu1004     O3276   2.087       .  S
Cu1004     O1454   2.052       .  S
Cu1004     O2823   2.077       .  S
Cu1004    Cu1005   2.300       .  S
Cu1005     O2824   2.074       .  S
Cu1005     O1457   2.056       .  S
Cu1005     O3283   2.060       .  S
C1007      C1051   1.518       .  S
C1010      C1047   1.516       .  S
C1010      C1011   1.453       .  A
C1010      C1015   1.382       .  A
C1011      C1012   1.458       .  A
C1011      H1472   1.073       .  S
C1012      C1013   1.385       .  A
C1013      C1014   1.377       .  A
C1013      H1017   1.086       .  S
C1014      C1308   1.422       .  S
C1014      C1015   1.376       .  A
C1015      H1018   1.086       .  S
H1016      C1467   1.073       .  S
C1019      C1049   1.516       .  S
C1019      C1020   1.453       .  A
C1019      C1024   1.382       .  A
C1020      C1021   1.456       .  A
C1020      H2849   1.071       .  S
C1021      C1022   1.385       .  A
C1022      C1023   1.377       .  A
C1022      H1026   1.086       .  S
C1023      C1353   1.422       .  S
C1023      C1024   1.378       .  A
C1024      H1027   1.086       .  S
H1025      C2844   1.071       .  S
C1028      C1050   1.531       .  S
C1028      C1029   1.463       .  A
C1028      C1033   1.384       .  A
C1029      C1030   1.466       .  A
C1029      H2858   1.072       .  S
C1030      C1031   1.383       .  A
C1031      C1032   1.378       .  A
C1031      H1035   1.086       .  S
C1032      C1317   1.426       .  S
C1032      C1033   1.378       .  A
C1033      H1036   1.086       .  S
H1034      C2853   1.072       .  S
O1037     Cu1501   2.072   1_554  S
O1037      C1047   1.285       .  A
O1038     Cu2869   2.063   1_455  S
O1038      C1048   1.288       .  A
O1039     Cu1045   2.082       .  S
O1039      C1049   1.288       .  A
O1040     Cu3325   2.094   1_454  S
O1040      C1050   1.288       .  A
O1041     Cu2870   2.090   1_454  S
O1041      C1050   1.273       .  A
O1042     Cu1502   2.070       .  S
O1042      C1049   1.271       .  A
O1043     Cu3326   2.083   1_455  S
O1043      C1048   1.269       .  A
O1044     Cu1046   2.075   1_554  S
O1044      C1047   1.271       .  A
Cu1045     O1493   2.072       .  S
Cu1045     O2862   2.063       .  S
Cu1045     O3320   2.094       .  S
Cu1045    Cu1502   2.301       .  S
Cu1046     O2865   2.090   1_556  S
Cu1046     O1498   2.070       .  S
Cu1046     O3323   2.083       .  S
Cu1046    Cu1501   2.301       .  S
C1048      C1060   1.523       .  S
C1051      C1052   1.453       .  A
C1051      C1056   1.376       .  A
C1052      C1053   1.460       .  A
C1052      H1513   1.070       .  S
C1053      C1079   1.521       .  S
C1053      C1054   1.382       .  A
C1054      C1055   1.372       .  A
C1054      H1058   1.086       .  S
C1055      C1344   1.412       .  S
C1055      C1056   1.375       .  A
C1056      H1059   1.087       .  S
H1057      C1508   1.070       .  S
C1060      C1061   1.454       .  A
C1060      C1065   1.386       .  A
C1061      C1062   1.451       .  A
C1061      H1522   1.071       .  S
C1062      C1080   1.510       .  S
C1062      C1063   1.381       .  A
C1063      C1064   1.376       .  A
C1063      H1067   1.087       .  S
C1064      C1328   1.423       .  S
C1064      C1065   1.378       .  A
C1065      H1068   1.086       .  S
H1066      C1517   1.071       .  S
O1069     Cu1077   2.076       .  S
O1069      C1079   1.288       .  A
O1070     Cu1077   2.074       .  S
O1070      C1080   1.285       .  A
O1071     Cu1077   2.056       .  S
O1071      C1081   1.286       .  A
O1072     Cu1077   2.047       .  S
O1072      C1082   1.286       .  A
O1073     Cu1078   2.070       .  S
O1073      C1082   1.266       .  A
O1074     Cu1078   2.081       .  S
O1074      C1081   1.263       .  A
O1075     Cu1078   2.063       .  S
O1075      C1080   1.267       .  A
O1076     Cu1078   2.079       .  S
O1076      C1079   1.264       .  A
Cu1077    Cu1078   2.272       .  S
C1081      C1092   1.522       .  S
C1082      C1133   1.511       .  S
C1083      C1120   1.511       .  S
C1083      C1084   1.455       .  A
C1083      C1088   1.373       .  A
C1084      C1085   1.460       .  A
C1084      H1545   1.071       .  S
C1085      C1086   1.380       .  A
C1086      C1087   1.369       .  A
C1086      H1090   1.086       .  S
C1087      C1299   1.407       .  S
C1087      C1088   1.371       .  A
C1088      H1091   1.088       .  S
H1089      C1540   1.071       .  S
C1092      C1093   1.379       .  A
C1092      C1097   1.460       .  A
C1093      C1094   1.369       .  A
C1093      H1098   1.087       .  S
C1094      C1351   1.407       .  S
C1094      C1095   1.372       .  A
C1095      C1096   1.375       .  A
C1095      H1099   1.087       .  S
C1096      C1121   1.513       .  S
C1096      C1097   1.455       .  A
C1097      H1556   1.070       .  S
H1100      C1553   1.070       .  S
C1101      C1102   1.375       .  A
C1101      C1106   1.446       .  A
C1102      C1103   1.375       .  A
C1102      H1107   1.087       .  S
C1103      C1310   1.409       .  S
C1103      C1104   1.372       .  A
C1104      C1105   1.382       .  A
C1104      H1108   1.086       .  S
C1105      C1122   1.510       .  S
C1105      C1106   1.453       .  A
O1110     Cu1118   2.064   1_554  S
O1110      C1120   1.267       .  A
O1111      C1121   1.269       .  A
O1112      C1122   1.263       .  A
O1113     Cu1574   2.066       .  S
O1113      C1123   1.264       .  A
O1114     Cu1119   2.060       .  S
O1114      C1123   1.287       .  A
O1115      C1122   1.287       .  A
O1116      C1121   1.286       .  A
O1117     Cu1575   2.077       .  S
O1117      C1120   1.286       .  A
Cu1118     O1569   2.066       .  S
Cu1118    Cu1575   2.278   1_556  S
Cu1119     O1573   2.077       .  S
Cu1119    Cu1574   2.278       .  S
C1123      C1208   1.514       .  S
C1124      C1125   1.449       .  A
C1124      C1129   1.382       .  A
C1125      C1126   1.444       .  A
C1125      H1586   1.072       .  S
C1126      C1163   1.501       .  S
C1126      C1127   1.383       .  A
C1127      C1128   1.376       .  A
C1127      H1131   1.086       .  S
C1128      C1315   1.419       .  S
C1128      C1129   1.375       .  A
C1129      H1132   1.086       .  S
H1130      C1581   1.072       .  S
C1133      C1134   1.384       .  A
C1133      C1138   1.448       .  A
C1134      C1135   1.376       .  A
C1134      H1139   1.086       .  S
C1135      C1333   1.421       .  S
C1135      C1136   1.376       .  A
C1136      C1137   1.382       .  A
C1136      H1140   1.086       .  S
C1137      C1164   1.498       .  S
C1137      C1138   1.443       .  A
C1138      H1597   1.073       .  S
H1141      C1594   1.073       .  S
C1142      C1143   1.377       .  A
C1142      C1147   1.461       .  A
C1143      C1144   1.373       .  A
C1143      H1148   1.087       .  S
C1144      C1324   1.408       .  S
C1144      C1145   1.370       .  A
C1145      C1146   1.377       .  A
C1145      H1149   1.087       .  S
C1146      C1161   1.532       .  S
C1146      C1147   1.468       .  A
O1151     Cu1159   2.081   1_565  S
O1151      C1161   1.264       .  A
O1152      C1162   1.266       .  A
O1153     Cu1615   2.059   1_565  S
O1153      C1163   1.269       .  A
O1154      C1164   1.267       .  A
O1155      C1164   1.281       .  A
O1156     Cu1616   2.061   1_564  S
O1156      C1163   1.282       .  A
O1157      C1162   1.292       .  A
O1158     Cu1160   2.085   1_565  S
O1158      C1161   1.292       .  A
Cu1159     O1609   2.059   1_545  S
Cu1159    Cu1160   2.277       .  S
Cu1160     O1612   2.061   1_545  S
C1162      C1219   1.534       .  S
C1165      C1166   1.377       .  A
C1165      C1170   1.447       .  A
C1166      C1167   1.375       .  A
C1166      H1171   1.087       .  S
C1167      C1355   1.409       .  S
C1167      C1168   1.371       .  A
C1168      C1169   1.381       .  A
C1168      H1172   1.087       .  S
C1169      C1202   1.512       .  S
C1169      C1170   1.456       .  A
C1174      C1205   1.525       .  S
C1174      C1175   1.381       .  A
C1174      C1179   1.461       .  A
C1175      C1176   1.370       .  A
C1175      H1180   1.086       .  S
C1176      C1342   1.408       .  S
C1176      C1177   1.370       .  A
C1177      C1178   1.374       .  A
C1177      H1181   1.087       .  S
C1178      C1179   1.458       .  A
C1179      H3006   1.072       .  S
H1182      C3003   1.072       .  S
C1183      C1204   1.501       .  S
C1183      C1184   1.443       .  A
C1183      C1188   1.375       .  A
C1184      C1185   1.449       .  A
C1184      H3013   1.069       .  S
C1185      C1186   1.380       .  A
C1186      C1187   1.370       .  A
C1186      H1190   1.087       .  S
C1187      C1326   1.406       .  S
C1187      C1188   1.373       .  A
C1188      H1191   1.087       .  S
H1189      C3008   1.069       .  S
O1192     Cu1200   2.058       .  S
O1192      C1202   1.262       .  A
O1193     Cu2112   2.064   1_455  S
O1193      C1203   1.267       .  A
O1194     Cu3024   2.060   1_455  S
O1194      C1204   1.269       .  A
O1195      C1205   1.265       .  A
O1196      C1205   1.286       .  A
O1197     Cu3025   2.052   1_455  S
O1197      C1204   1.283       .  A
O1198     Cu2113   2.090   1_455  S
O1198      C1203   1.287       .  A
O1199     Cu1201   2.075       .  S
O1199      C1202   1.290       .  A
Cu1200     O2105   2.064   1_565  S
Cu1200     O3018   2.060       .  S
Cu1200    Cu1201   2.282       .  S
Cu1201     O3021   2.052       .  S
Cu1201     O2110   2.090   1_565  S
C1203      C1224   1.518       .  S
C1206      C1243   1.505       .  S
C1206      C1207   1.445       .  A
C1206      C1211   1.381       .  A
C1207      C1208   1.451       .  A
C1208      C1209   1.384       .  A
C1209      C1210   1.376       .  A
C1209      H1213   1.086       .  S
C1210      C1346   1.419       .  S
C1210      C1211   1.377       .  A
C1211      H1214   1.087       .  S
C1215      C1244   1.525       .  S
C1215      C1216   1.385       .  A
C1215      C1220   1.458       .  A
C1216      C1217   1.379       .  A
C1216      H1221   1.086       .  S
C1217      C1360   1.424       .  S
C1217      C1218   1.377       .  A
C1218      C1219   1.382       .  A
C1218      H1222   1.086       .  S
C1219      C1220   1.464       .  A
C1224      C1225   1.458       .  A
C1224      C1229   1.382       .  A
C1225      C1226   1.461       .  A
C1226      C1245   1.534       .  S
C1226      C1227   1.385       .  A
C1227      C1228   1.378       .  A
C1227      H1231   1.086       .  S
C1228      C1337   1.423       .  S
C1228      C1229   1.376       .  A
C1229      H1232   1.086       .  S
O1233     Cu1241   2.070       .  S
O1233      C1243   1.284       .  A
O1234     Cu1241   2.086       .  S
O1234      C1244   1.286       .  A
O1235     Cu1241   2.074       .  S
O1235      C1245   1.290       .  A
O1236     Cu1241   2.084       .  S
O1236      C1246   1.288       .  A
O1237     Cu1242   2.083       .  S
O1237      C1246   1.271       .  A
O1238     Cu1242   2.093       .  S
O1238      C1245   1.269       .  A
O1239     Cu1242   2.087       .  S
O1239      C1244   1.273       .  A
O1240     Cu1242   2.060       .  S
O1240      C1243   1.269       .  A
Cu1241    Cu1242   2.296       .  S
C1246      C1267   1.526       .  S
C1247      C1248   1.388       .  A
C1247      C1252   1.451       .  A
C1248      C1249   1.377       .  A
C1248      H1253   1.086       .  S
C1249      C1319   1.421       .  S
C1249      C1250   1.374       .  A
C1250      C1251   1.380       .  A
C1250      H1254   1.087       .  S
C1251      C1293   1.500       .  S
C1251      C1252   1.449       .  A
C1256      C1257   1.379       .  A
C1256      C1261   1.463       .  A
C1257      C1258   1.370       .  A
C1257      H1262   1.086       .  S
C1258      C1306   1.409       .  S
C1258      C1259   1.372       .  A
C1259      C1260   1.376       .  A
C1259      H1263   1.087       .  S
C1260      C1296   1.515       .  S
C1260      C1261   1.456       .  A
C1261      H3088   1.072       .  S
H1264      C3085   1.072       .  S
C1265      C1294   1.529       .  S
C1265      C1266   1.466       .  A
C1265      C1270   1.381       .  A
C1266      C1267   1.459       .  A
C1267      C1268   1.374       .  A
C1268      C1269   1.375       .  A
C1268      H1272   1.087       .  S
C1269      C1297   1.411       .  S
C1269      C1270   1.372       .  A
C1270      H1273   1.086       .  S
C1274      C1275   1.381       .  A
C1274      C1279   1.443       .  A
C1275      C1276   1.374       .  A
C1275      H1280   1.086       .  S
C1276      C1364   1.419       .  S
C1276      C1277   1.376       .  A
C1277      C1278   1.385       .  A
C1277      H1281   1.086       .  S
C1278      C1295   1.511       .  S
C1278      C1279   1.448       .  A
C1279      H3106   1.074       .  S
H1282      C3103   1.074       .  S
O1283     Cu2203   2.077   1_565  S
O1283      C1293   1.286       .  A
O1284     Cu1291   2.088       .  S
O1284      C1294   1.290       .  A
O1285     Cu3115   2.049       .  S
O1285      C1295   1.286       .  A
O1286      C1296   1.284       .  A
O1287     Cu1292   2.077   1_565  S
O1287      C1296   1.270       .  A
O1288     Cu2204   2.066       .  S
O1288      C1295   1.266       .  A
O1289      C1294   1.263       .  A
O1290     Cu3116   2.039   1_565  S
O1290      C1293   1.264       .  A
Cu1291     O2195   2.077       .  S
Cu1291     O3109   2.049       .  S
Cu1292     O2200   2.066       .  S
Cu1292     O3114   2.039   1_545  S
C1297      C1298   1.374       .  A
C1297      C1302   1.384       .  A
C1298      C1299   1.372       .  A
C1298      H1303   1.086       .  S
C1299      C1300   1.386       .  A
C1300      C1301   1.377       .  A
C1300      H1304   1.086       .  S
C1301      C1302   1.385       .  A
C1302      H1305   1.086       .  S
C1306      C1307   1.388       .  A
C1306      C1311   1.372       .  A
C1307      C1308   1.378       .  A
C1307      H1312   1.086       .  S
C1308      C1309   1.386       .  A
C1309      C1310   1.382       .  A
C1309      H1313   1.086       .  S
C1310      C1311   1.374       .  A
C1311      H1314   1.086       .  S
C1315      C1316   1.390       .  A
C1315      C1320   1.374       .  A
C1316      C1317   1.379       .  A
C1316      H1321   1.086       .  S
C1317      C1318   1.391       .  A
C1318      C1319   1.378       .  A
C1318      H1322   1.085       .  S
C1319      C1320   1.387       .  A
C1320      H1323   1.086       .  S
C1324      C1325   1.371       .  A
C1324      C1329   1.388       .  A
C1325      C1326   1.373       .  A
C1325      H1330   1.087       .  S
C1326      C1327   1.381       .  A
C1327      C1328   1.385       .  A
C1327      H1331   1.086       .  S
C1328      C1329   1.379       .  A
C1329      H1332   1.085       .  S
C1333      C1334   1.389       .  A
C1333      C1338   1.376       .  A
C1334      C1335   1.378       .  A
C1334      H1339   1.086       .  S
C1335      C1336   1.390       .  A
C1336      C1337   1.379       .  A
C1336      H1340   1.085       .  S
C1337      C1338   1.388       .  A
C1338      H1341   1.086       .  S
C1342      C1343   1.373       .  A
C1342      C1347   1.385       .  A
C1343      C1344   1.376       .  A
C1343      H1348   1.086       .  S
C1344      C1345   1.383       .  A
C1345      C1346   1.386       .  A
C1345      H1349   1.086       .  S
C1346      C1347   1.375       .  A
C1347      H1350   1.086       .  S
C1351      C1352   1.386       .  A
C1351      C1356   1.372       .  A
C1352      C1353   1.378       .  A
C1352      H1357   1.086       .  S
C1353      C1354   1.386       .  A
C1354      C1355   1.384       .  A
C1354      H1358   1.085       .  S
C1355      C1356   1.373       .  A
C1356      H1359   1.086       .  S
C1360      C1361   1.393       .  A
C1360      C1365   1.376       .  A
C1361      C1362   1.380       .  A
C1361      H1366   1.085       .  S
C1362      C1363   1.389       .  A
C1363      C1364   1.376       .  A
C1363      H1367   1.086       .  S
C1364      C1365   1.388       .  A
C1365      H1368   1.086       .  S
O1369     Cu1377   2.060       .  S
O1369      C1379   1.282       .  A
O1370     Cu1377   2.054       .  S
O1370      C1380   1.285       .  A
O1371     Cu1377   2.072       .  S
O1371      C1381   1.289       .  A
O1372     Cu1377   2.080       .  S
O1372      C1382   1.290       .  A
O1373     Cu1378   2.107       .  S
O1373      C1382   1.267       .  A
O1374     Cu1378   2.086       .  S
O1374      C1381   1.267       .  A
O1375     Cu1378   2.056       .  S
O1375      C1380   1.260       .  A
O1376     Cu1378   2.043       .  S
O1376      C1379   1.266       .  A
Cu1377    Cu1378   2.270       .  S
C1379      C1730   1.495       .  S
C1380      C1641   1.504       .  S
C1381      C1436   1.527       .  S
C1382      C1486   1.541       .  S
O1383     Cu1391   2.050       .  S
O1383      C1393   1.286       .  A
O1384     Cu1391   2.056       .  S
O1384      C1394   1.284       .  A
O1385     Cu1391   2.084       .  S
O1385      C1395   1.287       .  A
O1386     Cu1391   2.068       .  S
O1386      C1396   1.286       .  A
O1387     Cu1392   2.059       .  S
O1387      C1396   1.269       .  A
O1388     Cu1392   2.085       .  S
O1388      C1395   1.271       .  A
O1389     Cu1392   2.071       .  S
O1389      C1394   1.270       .  A
O1390     Cu1392   2.080       .  S
O1390      C1393   1.269       .  A
Cu1391    Cu1392   2.294       .  S
C1393      C1703   1.520       .  S
C1394      C1621   1.509       .  S
C1395      C1598   1.525       .  S
C1396      C1557   1.507       .  S
O1397     Cu1405   2.048       .  S
O1397      C1407   1.285       .  A
O1398     Cu1405   2.063       .  S
O1398      C1408   1.286       .  A
O1399     Cu1405   2.073       .  S
O1399      C1409   1.290       .  A
O1400     Cu1405   2.080       .  S
O1400      C1410   1.287       .  A
O1401     Cu1406   2.061       .  S
O1401      C1410   1.267       .  A
O1402     Cu1406   2.080       .  S
O1402      C1409   1.262       .  A
O1403     Cu1406   2.092       .  S
O1403      C1408   1.267       .  A
O1404     Cu1406   2.062       .  S
O1404      C1407   1.265       .  A
Cu1405    Cu1406   2.269       .  S
C1407      C1445   1.506       .  S
C1408      C1477   1.524       .  S
C1409      C1712   1.524       .  S
C1410      C1634   1.512       .  S
O1411     Cu1419   2.074       .  S
O1411      C1421   1.288       .  A
O1412     Cu1419   2.077       .  S
O1412      C1422   1.285       .  A
O1413     Cu1419   2.056       .  S
O1413      C1423   1.286       .  A
O1414     Cu1419   2.049       .  S
O1414      C1424   1.286       .  A
O1415     Cu1420   2.067       .  S
O1415      C1424   1.264       .  A
O1416     Cu1420   2.083       .  S
O1416      C1423   1.263       .  A
O1417     Cu1420   2.061       .  S
O1417      C1422   1.267       .  A
O1418     Cu1420   2.087       .  S
O1418      C1421   1.266       .  A
Cu1419    Cu1420   2.271       .  S
C1421      C1468   1.525       .  S
C1422      C1425   1.510       .  S
C1423      C1541   1.521       .  S
C1424      C1580   1.512       .  S
C1425      C1426   1.383       .  A
C1425      C1430   1.452       .  A
C1426      C1427   1.376       .  A
C1426      H1431   1.086       .  S
C1427      C1818   1.426       .  S
C1427      C1428   1.379       .  A
C1428      C1429   1.387       .  A
C1428      H1432   1.086       .  S
C1429      C1462   1.527       .  S
C1429      C1430   1.455       .  A
C1434      C1465   1.517       .  S
C1434      C1435   1.453       .  A
C1434      C1439   1.385       .  A
C1435      C1436   1.458       .  A
C1435      H3264   1.072       .  S
C1436      C1437   1.383       .  A
C1437      C1438   1.377       .  A
C1437      H1441   1.086       .  S
C1438      C1791   1.424       .  S
C1438      C1439   1.377       .  A
C1439      H1442   1.086       .  S
H1440      C3259   1.072       .  S
C1443      C1464   1.498       .  S
C1443      C1444   1.441       .  A
C1443      C1448   1.382       .  A
C1444      C1445   1.445       .  A
C1444      H3273   1.070       .  S
C1445      C1446   1.384       .  A
C1446      C1447   1.376       .  A
C1446      H1450   1.086       .  S
C1447      C1757   1.419       .  S
C1447      C1448   1.376       .  A
C1448      H1451   1.086       .  S
H1449      C3268   1.070       .  S
O1452     Cu2828   2.087   1_455  S
O1452      C1462   1.270       .  A
O1453     Cu1460   2.078   1_556  S
O1453      C1463   1.271       .  A
O1454      C1464   1.269       .  A
O1455     Cu3284   2.077   1_456  S
O1455      C1465   1.272       .  A
O1456     Cu3285   2.074   1_456  S
O1456      C1465   1.285       .  A
O1457      C1464   1.283       .  A
O1458     Cu1461   2.068   1_556  S
O1458      C1463   1.286       .  A
O1459     Cu2829   2.060   1_455  S
O1459      C1462   1.288       .  A
Cu1460     O2820   2.087       .  S
Cu1460     O3279   2.077   1_554  S
Cu1460    Cu1461   2.300       .  S
Cu1461     O3280   2.074   1_554  S
Cu1461     O2827   2.060       .  S
C1463      C1507   1.518       .  S
C1466      C1503   1.516       .  S
C1466      C1467   1.453       .  A
C1466      C1471   1.382       .  A
C1467      C1468   1.458       .  A
C1468      C1469   1.385       .  A
C1469      C1470   1.377       .  A
C1469      H1473   1.086       .  S
C1470      C1764   1.422       .  S
C1470      C1471   1.376       .  A
C1471      H1474   1.086       .  S
C1475      C1505   1.516       .  S
C1475      C1476   1.453       .  A
C1475      C1480   1.382       .  A
C1476      C1477   1.456       .  A
C1476      H3305   1.071       .  S
C1477      C1478   1.385       .  A
C1478      C1479   1.377       .  A
C1478      H1482   1.086       .  S
C1479      C1809   1.422       .  S
C1479      C1480   1.378       .  A
C1480      H1483   1.086       .  S
H1481      C3300   1.071       .  S
C1484      C1506   1.531       .  S
C1484      C1485   1.463       .  A
C1484      C1489   1.384       .  A
C1485      C1486   1.466       .  A
C1485      H3314   1.072       .  S
C1486      C1487   1.383       .  A
C1487      C1488   1.378       .  A
C1487      H1491   1.086       .  S
C1488      C1773   1.426       .  S
C1488      C1489   1.378       .  A
C1489      H1492   1.086       .  S
H1490      C3309   1.072       .  S
O1493      C1503   1.285       .  A
O1494     Cu3325   2.063   1_455  S
O1494      C1504   1.288       .  A
O1495     Cu1501   2.082       .  S
O1495      C1505   1.288       .  A
O1496     Cu2869   2.094   1_455  S
O1496      C1506   1.288       .  A
O1497     Cu3326   2.090   1_455  S
O1497      C1506   1.273       .  A
O1498      C1505   1.271       .  A
O1499     Cu2870   2.083   1_455  S
O1499      C1504   1.269       .  A
O1500     Cu1502   2.075       .  S
O1500      C1503   1.271       .  A
Cu1501     O3318   2.063       .  S
Cu1501     O2864   2.094   1_556  S
Cu1502     O3321   2.090       .  S
Cu1502     O2867   2.083       .  S
C1504      C1516   1.523       .  S
C1507      C1508   1.453       .  A
C1507      C1512   1.376       .  A
C1508      C1509   1.460       .  A
C1509      C1535   1.521       .  S
C1509      C1510   1.382       .  A
C1510      C1511   1.372       .  A
C1510      H1514   1.086       .  S
C1511      C1800   1.412       .  S
C1511      C1512   1.375       .  A
C1512      H1515   1.087       .  S
C1516      C1517   1.454       .  A
C1516      C1521   1.386       .  A
C1517      C1518   1.451       .  A
C1518      C1536   1.510       .  S
C1518      C1519   1.381       .  A
C1519      C1520   1.376       .  A
C1519      H1523   1.087       .  S
C1520      C1784   1.423       .  S
C1520      C1521   1.378       .  A
C1521      H1524   1.086       .  S
O1525     Cu1533   2.076       .  S
O1525      C1535   1.288       .  A
O1526     Cu1533   2.074       .  S
O1526      C1536   1.285       .  A
O1527     Cu1533   2.056       .  S
O1527      C1537   1.286       .  A
O1528     Cu1533   2.047       .  S
O1528      C1538   1.286       .  A
O1529     Cu1534   2.070       .  S
O1529      C1538   1.266       .  A
O1530     Cu1534   2.081       .  S
O1530      C1537   1.263       .  A
O1531     Cu1534   2.063       .  S
O1531      C1536   1.267       .  A
O1532     Cu1534   2.079       .  S
O1532      C1535   1.264       .  A
Cu1533    Cu1534   2.272       .  S
C1537      C1548   1.522       .  S
C1538      C1589   1.511       .  S
C1539      C1576   1.511       .  S
C1539      C1540   1.455       .  A
C1539      C1544   1.373       .  A
C1540      C1541   1.460       .  A
C1541      C1542   1.380       .  A
C1542      C1543   1.369       .  A
C1542      H1546   1.086       .  S
C1543      C1755   1.407       .  S
C1543      C1544   1.371       .  A
C1544      H1547   1.088       .  S
C1548      C1549   1.379       .  A
C1548      C1553   1.460       .  A
C1549      C1550   1.369       .  A
C1549      H1554   1.087       .  S
C1550      C1807   1.407       .  S
C1550      C1551   1.372       .  A
C1551      C1552   1.375       .  A
C1551      H1555   1.087       .  S
C1552      C1577   1.513       .  S
C1552      C1553   1.455       .  A
C1557      C1558   1.375       .  A
C1557      C1562   1.446       .  A
C1558      C1559   1.375       .  A
C1558      H1563   1.087       .  S
C1559      C1766   1.409       .  S
C1559      C1560   1.372       .  A
C1560      C1561   1.382       .  A
C1560      H1564   1.086       .  S
C1561      C1578   1.510       .  S
C1561      C1562   1.453       .  A
O1566     Cu1574   2.064       .  S
O1566      C1576   1.267       .  A
O1567      C1577   1.269       .  A
O1568      C1578   1.263       .  A
O1569      C1579   1.264       .  A
O1570     Cu1575   2.060   1_556  S
O1570      C1579   1.287       .  A
O1571      C1578   1.287       .  A
O1572      C1577   1.286       .  A
O1573      C1576   1.286       .  A
C1579      C1664   1.514       .  S
C1580      C1581   1.449       .  A
C1580      C1585   1.382       .  A
C1581      C1582   1.444       .  A
C1582      C1619   1.501       .  S
C1582      C1583   1.383       .  A
C1583      C1584   1.376       .  A
C1583      H1587   1.086       .  S
C1584      C1771   1.419       .  S
C1584      C1585   1.375       .  A
C1585      H1588   1.086       .  S
C1589      C1590   1.384       .  A
C1589      C1594   1.448       .  A
C1590      C1591   1.376       .  A
C1590      H1595   1.086       .  S
C1591      C1789   1.421       .  S
C1591      C1592   1.376       .  A
C1592      C1593   1.382       .  A
C1592      H1596   1.086       .  S
C1593      C1620   1.498       .  S
C1593      C1594   1.443       .  A
C1598      C1599   1.377       .  A
C1598      C1603   1.461       .  A
C1599      C1600   1.373       .  A
C1599      H1604   1.087       .  S
C1600      C1780   1.408       .  S
C1600      C1601   1.370       .  A
C1601      C1602   1.377       .  A
C1601      H1605   1.087       .  S
C1602      C1617   1.532       .  S
C1602      C1603   1.468       .  A
O1607     Cu1615   2.081   1_566  S
O1607      C1617   1.264       .  A
O1608      C1618   1.266       .  A
O1609      C1619   1.269       .  A
O1610      C1620   1.267       .  A
O1611      C1620   1.281       .  A
O1612      C1619   1.282       .  A
O1613      C1618   1.292       .  A
O1614     Cu1616   2.085   1_565  S
O1614      C1617   1.292       .  A
Cu1615    Cu1616   2.277   1_554  S
C1618      C1675   1.534       .  S
C1621      C1622   1.377       .  A
C1621      C1626   1.447       .  A
C1622      C1623   1.375       .  A
C1622      H1627   1.087       .  S
C1623      C1811   1.409       .  S
C1623      C1624   1.371       .  A
C1624      C1625   1.381       .  A
C1624      H1628   1.087       .  S
C1625      C1658   1.512       .  S
C1625      C1626   1.456       .  A
C1630      C1661   1.525       .  S
C1630      C1631   1.381       .  A
C1630      C1635   1.461       .  A
C1631      C1632   1.370       .  A
C1631      H1636   1.086       .  S
C1632      C1798   1.408       .  S
C1632      C1633   1.370       .  A
C1633      C1634   1.374       .  A
C1633      H1637   1.087       .  S
C1634      C1635   1.458       .  A
C1635      H3462   1.072       .  S
H1638      C3459   1.072       .  S
C1639      C1660   1.501       .  S
C1639      C1640   1.443       .  A
C1639      C1644   1.375       .  A
C1640      C1641   1.449       .  A
C1640      H3469   1.069       .  S
C1641      C1642   1.380       .  A
C1642      C1643   1.370       .  A
C1642      H1646   1.087       .  S
C1643      C1782   1.406       .  S
C1643      C1644   1.373       .  A
C1644      H1647   1.087       .  S
H1645      C3464   1.069       .  S
O1648     Cu1656   2.058       .  S
O1648      C1658   1.262       .  A
O1649     Cu2568   2.064   1_455  S
O1649      C1659   1.267       .  A
O1650     Cu3480   2.060   1_455  S
O1650      C1660   1.269       .  A
O1651      C1661   1.265       .  A
O1652      C1661   1.286       .  A
O1653     Cu3481   2.052   1_455  S
O1653      C1660   1.283       .  A
O1654     Cu2569   2.090   1_455  S
O1654      C1659   1.287       .  A
O1655     Cu1657   2.075       .  S
O1655      C1658   1.290       .  A
Cu1656     O2561   2.064   1_565  S
Cu1656     O3474   2.060       .  S
Cu1656    Cu1657   2.282       .  S
Cu1657     O3477   2.052       .  S
Cu1657     O2566   2.090   1_565  S
C1659      C1680   1.518       .  S
C1662      C1699   1.505       .  S
C1662      C1663   1.445       .  A
C1662      C1667   1.381       .  A
C1663      C1664   1.451       .  A
C1664      C1665   1.384       .  A
C1665      C1666   1.376       .  A
C1665      H1669   1.086       .  S
C1666      C1802   1.419       .  S
C1666      C1667   1.377       .  A
C1667      H1670   1.087       .  S
C1671      C1700   1.525       .  S
C1671      C1672   1.385       .  A
C1671      C1676   1.458       .  A
C1672      C1673   1.379       .  A
C1672      H1677   1.086       .  S
C1673      C1816   1.424       .  S
C1673      C1674   1.377       .  A
C1674      C1675   1.382       .  A
C1674      H1678   1.086       .  S
C1675      C1676   1.464       .  A
C1680      C1681   1.458       .  A
C1680      C1685   1.382       .  A
C1681      C1682   1.461       .  A
C1682      C1701   1.534       .  S
C1682      C1683   1.385       .  A
C1683      C1684   1.378       .  A
C1683      H1687   1.086       .  S
C1684      C1793   1.423       .  S
C1684      C1685   1.376       .  A
C1685      H1688   1.086       .  S
O1689     Cu1697   2.070       .  S
O1689      C1699   1.284       .  A
O1690     Cu1697   2.086       .  S
O1690      C1700   1.286       .  A
O1691     Cu1697   2.074       .  S
O1691      C1701   1.290       .  A
O1692     Cu1697   2.084       .  S
O1692      C1702   1.288       .  A
O1693     Cu1698   2.083       .  S
O1693      C1702   1.271       .  A
O1694     Cu1698   2.093       .  S
O1694      C1701   1.269       .  A
O1695     Cu1698   2.087       .  S
O1695      C1700   1.273       .  A
O1696     Cu1698   2.060       .  S
O1696      C1699   1.269       .  A
Cu1697    Cu1698   2.296       .  S
C1702      C1723   1.526       .  S
C1703      C1704   1.388       .  A
C1703      C1708   1.451       .  A
C1704      C1705   1.377       .  A
C1704      H1709   1.086       .  S
C1705      C1775   1.421       .  S
C1705      C1706   1.374       .  A
C1706      C1707   1.380       .  A
C1706      H1710   1.087       .  S
C1707      C1749   1.500       .  S
C1707      C1708   1.449       .  A
C1712      C1713   1.379       .  A
C1712      C1717   1.463       .  A
C1713      C1714   1.370       .  A
C1713      H1718   1.086       .  S
C1714      C1762   1.409       .  S
C1714      C1715   1.372       .  A
C1715      C1716   1.376       .  A
C1715      H1719   1.087       .  S
C1716      C1752   1.515       .  S
C1716      C1717   1.456       .  A
C1717      H3544   1.072       .  S
H1720      C3541   1.072       .  S
C1721      C1750   1.529       .  S
C1721      C1722   1.466       .  A
C1721      C1726   1.381       .  A
C1722      C1723   1.459       .  A
C1723      C1724   1.374       .  A
C1724      C1725   1.375       .  A
C1724      H1728   1.087       .  S
C1725      C1753   1.411       .  S
C1725      C1726   1.372       .  A
C1726      H1729   1.086       .  S
C1730      C1731   1.381       .  A
C1730      C1735   1.443       .  A
C1731      C1732   1.374       .  A
C1731      H1736   1.086       .  S
C1732      C1820   1.419       .  S
C1732      C1733   1.376       .  A
C1733      C1734   1.385       .  A
C1733      H1737   1.086       .  S
C1734      C1751   1.511       .  S
C1734      C1735   1.448       .  A
C1735      H3562   1.074       .  S
H1738      C3559   1.074       .  S
O1739     Cu2659   2.077   1_565  S
O1739      C1749   1.286       .  A
O1740     Cu1747   2.088       .  S
O1740      C1750   1.290       .  A
O1741     Cu3571   2.049       .  S
O1741      C1751   1.286       .  A
O1742      C1752   1.284       .  A
O1743     Cu1748   2.077   1_565  S
O1743      C1752   1.270       .  A
O1744     Cu2660   2.066       .  S
O1744      C1751   1.266       .  A
O1745      C1750   1.263       .  A
O1746     Cu3572   2.039   1_565  S
O1746      C1749   1.264       .  A
Cu1747     O2651   2.077       .  S
Cu1747     O3565   2.049       .  S
Cu1748     O2656   2.066       .  S
Cu1748     O3570   2.039   1_545  S
C1753      C1754   1.374       .  A
C1753      C1758   1.384       .  A
C1754      C1755   1.372       .  A
C1754      H1759   1.086       .  S
C1755      C1756   1.386       .  A
C1756      C1757   1.377       .  A
C1756      H1760   1.086       .  S
C1757      C1758   1.385       .  A
C1758      H1761   1.086       .  S
C1762      C1763   1.388       .  A
C1762      C1767   1.372       .  A
C1763      C1764   1.378       .  A
C1763      H1768   1.086       .  S
C1764      C1765   1.386       .  A
C1765      C1766   1.382       .  A
C1765      H1769   1.086       .  S
C1766      C1767   1.374       .  A
C1767      H1770   1.086       .  S
C1771      C1772   1.390       .  A
C1771      C1776   1.374       .  A
C1772      C1773   1.379       .  A
C1772      H1777   1.086       .  S
C1773      C1774   1.391       .  A
C1774      C1775   1.378       .  A
C1774      H1778   1.085       .  S
C1775      C1776   1.387       .  A
C1776      H1779   1.086       .  S
C1780      C1781   1.371       .  A
C1780      C1785   1.388       .  A
C1781      C1782   1.373       .  A
C1781      H1786   1.087       .  S
C1782      C1783   1.381       .  A
C1783      C1784   1.385       .  A
C1783      H1787   1.086       .  S
C1784      C1785   1.379       .  A
C1785      H1788   1.085       .  S
C1789      C1790   1.389       .  A
C1789      C1794   1.376       .  A
C1790      C1791   1.378       .  A
C1790      H1795   1.086       .  S
C1791      C1792   1.390       .  A
C1792      C1793   1.379       .  A
C1792      H1796   1.085       .  S
C1793      C1794   1.388       .  A
C1794      H1797   1.086       .  S
C1798      C1799   1.373       .  A
C1798      C1803   1.385       .  A
C1799      C1800   1.376       .  A
C1799      H1804   1.086       .  S
C1800      C1801   1.383       .  A
C1801      C1802   1.386       .  A
C1801      H1805   1.086       .  S
C1802      C1803   1.375       .  A
C1803      H1806   1.086       .  S
C1807      C1808   1.386       .  A
C1807      C1812   1.372       .  A
C1808      C1809   1.378       .  A
C1808      H1813   1.086       .  S
C1809      C1810   1.386       .  A
C1810      C1811   1.384       .  A
C1810      H1814   1.085       .  S
C1811      C1812   1.373       .  A
C1812      H1815   1.086       .  S
C1816      C1817   1.393       .  A
C1816      C1821   1.376       .  A
C1817      C1818   1.380       .  A
C1817      H1822   1.085       .  S
C1818      C1819   1.389       .  A
C1819      C1820   1.376       .  A
C1819      H1823   1.086       .  S
C1820      C1821   1.388       .  A
C1821      H1824   1.086       .  S
O1825     Cu1833   2.060       .  S
O1825      C1835   1.282       .  A
O1826     Cu1833   2.054       .  S
O1826      C1836   1.285       .  A
O1827     Cu1833   2.072       .  S
O1827      C1837   1.289       .  A
O1828     Cu1833   2.080       .  S
O1828      C1838   1.290       .  A
O1829     Cu1834   2.107       .  S
O1829      C1838   1.267       .  A
O1830     Cu1834   2.086       .  S
O1830      C1837   1.267       .  A
O1831     Cu1834   2.056       .  S
O1831      C1836   1.260       .  A
O1832     Cu1834   2.043       .  S
O1832      C1835   1.266       .  A
Cu1833    Cu1834   2.270       .  S
C1835      C2186   1.495       .  S
C1836      C2097   1.504       .  S
C1837      C1892   1.527       .  S
C1838      C1942   1.541       .  S
O1839     Cu1847   2.050       .  S
O1839      C1849   1.286       .  A
O1840     Cu1847   2.056       .  S
O1840      C1850   1.284       .  A
O1841     Cu1847   2.084       .  S
O1841      C1851   1.287       .  A
O1842     Cu1847   2.068       .  S
O1842      C1852   1.286       .  A
O1843     Cu1848   2.059       .  S
O1843      C1852   1.269       .  A
O1844     Cu1848   2.085       .  S
O1844      C1851   1.271       .  A
O1845     Cu1848   2.071       .  S
O1845      C1850   1.270       .  A
O1846     Cu1848   2.080       .  S
O1846      C1849   1.269       .  A
Cu1847    Cu1848   2.294       .  S
C1849      C2159   1.520       .  S
C1850      C2077   1.509       .  S
C1851      C2054   1.525       .  S
C1852      C2013   1.507       .  S
O1853     Cu1861   2.048       .  S
O1853      C1863   1.285       .  A
O1854     Cu1861   2.063       .  S
O1854      C1864   1.286       .  A
O1855     Cu1861   2.073       .  S
O1855      C1865   1.290       .  A
O1856     Cu1861   2.080       .  S
O1856      C1866   1.287       .  A
O1857     Cu1862   2.061       .  S
O1857      C1866   1.267       .  A
O1858     Cu1862   2.080       .  S
O1858      C1865   1.262       .  A
O1859     Cu1862   2.092       .  S
O1859      C1864   1.267       .  A
O1860     Cu1862   2.062       .  S
O1860      C1863   1.265       .  A
Cu1861    Cu1862   2.269       .  S
C1863      C1901   1.506       .  S
C1864      C1933   1.524       .  S
C1865      C2168   1.524       .  S
C1866      C2090   1.512       .  S
O1867     Cu1875   2.074       .  S
O1867      C1877   1.288       .  A
O1868     Cu1875   2.077       .  S
O1868      C1878   1.285       .  A
O1869     Cu1875   2.057       .  S
O1869      C1879   1.286       .  A
O1870     Cu1875   2.049       .  S
O1870      C1880   1.286       .  A
O1871     Cu1876   2.067       .  S
O1871      C1880   1.264       .  A
O1872     Cu1876   2.083       .  S
O1872      C1879   1.263       .  A
O1873     Cu1876   2.061       .  S
O1873      C1878   1.267       .  A
O1874     Cu1876   2.087       .  S
O1874      C1877   1.266       .  A
Cu1875    Cu1876   2.271       .  S
C1877      C1924   1.525       .  S
C1878      C1881   1.510       .  S
C1879      C1997   1.521       .  S
C1880      C2036   1.512       .  S
C1881      C1882   1.383       .  A
C1881      C1886   1.452       .  A
C1882      C1883   1.376       .  A
C1882      H1887   1.086       .  S
C1883      C2274   1.426       .  S
C1883      C1884   1.379       .  A
C1884      C1885   1.387       .  A
C1884      H1888   1.086       .  S
C1885      C1918   1.527       .  S
C1885      C1886   1.455       .  A
C1886      H2345   1.074       .  S
H1889      C2342   1.074       .  S
C1890      C1921   1.517       .  S
C1890      C1891   1.453       .  A
C1890      C1895   1.385       .  A
C1891      C1892   1.458       .  A
C1892      C1893   1.383       .  A
C1893      C1894   1.377       .  A
C1893      H1897   1.086       .  S
C1894      C2247   1.424       .  S
C1894      C1895   1.377       .  A
C1895      H1898   1.086       .  S
C1899      C1920   1.498       .  S
C1899      C1900   1.441       .  A
C1899      C1904   1.382       .  A
C1900      C1901   1.445       .  A
C1901      C1902   1.384       .  A
C1902      C1903   1.376       .  A
C1902      H1906   1.086       .  S
C1903      C2213   1.419       .  S
C1903      C1904   1.376       .  A
C1904      H1907   1.086       .  S
O1908      C1918   1.270       .  A
O1909     Cu1916   2.078       .  S
O1909      C1919   1.271       .  A
O1910     Cu2372   2.052       .  S
O1910      C1920   1.269       .  A
O1911      C1921   1.272       .  A
O1912      C1921   1.285       .  A
O1913     Cu2373   2.056       .  S
O1913      C1920   1.283       .  A
O1914     Cu1917   2.068       .  S
O1914      C1919   1.286       .  A
O1915      C1918   1.288       .  A
Cu1916     O2366   2.052       .  S
Cu1916    Cu1917   2.300       .  S
Cu1917     O2369   2.056       .  S
C1919      C1963   1.518       .  S
C1922      C1959   1.516       .  S
C1922      C1923   1.453       .  A
C1922      C1927   1.382       .  A
C1923      C1924   1.457       .  A
C1923      H2384   1.073       .  S
C1924      C1925   1.385       .  A
C1925      C1926   1.377       .  A
C1925      H1929   1.086       .  S
C1926      C2220   1.422       .  S
C1926      C1927   1.376       .  A
C1927      H1930   1.086       .  S
H1928      C2379   1.073       .  S
C1931      C1961   1.516       .  S
C1931      C1932   1.453       .  A
C1931      C1936   1.382       .  A
C1932      C1933   1.456       .  A
C1933      C1934   1.385       .  A
C1934      C1935   1.377       .  A
C1934      H1938   1.086       .  S
C1935      C2265   1.422       .  S
C1935      C1936   1.378       .  A
C1936      H1939   1.086       .  S
C1940      C1962   1.531       .  S
C1940      C1941   1.463       .  A
C1940      C1945   1.384       .  A
C1941      C1942   1.466       .  A
C1942      C1943   1.383       .  A
C1943      C1944   1.378       .  A
C1943      H1947   1.086       .  S
C1944      C2229   1.426       .  S
C1944      C1945   1.378       .  A
C1945      H1948   1.086       .  S
O1949     Cu2413   2.072   1_554  S
O1949      C1959   1.285       .  A
O1950      C1960   1.288       .  A
O1951     Cu1957   2.082       .  S
O1951      C1961   1.288       .  A
O1952      C1962   1.288       .  A
O1953      C1962   1.273       .  A
O1954     Cu2414   2.070       .  S
O1954      C1961   1.271       .  A
O1955      C1960   1.269       .  A
O1956     Cu1958   2.075   1_554  S
O1956      C1959   1.271       .  A
Cu1957     O2405   2.072       .  S
Cu1957    Cu2414   2.301       .  S
Cu1958     O2410   2.070       .  S
Cu1958    Cu2413   2.301       .  S
C1960      C1972   1.523       .  S
C1963      C1964   1.453       .  A
C1963      C1968   1.376       .  A
C1964      C1965   1.460       .  A
C1964      H2425   1.070       .  S
C1965      C1991   1.521       .  S
C1965      C1966   1.382       .  A
C1966      C1967   1.372       .  A
C1966      H1970   1.086       .  S
C1967      C2256   1.412       .  S
C1967      C1968   1.375       .  A
C1968      H1971   1.087       .  S
H1969      C2420   1.070       .  S
C1972      C1973   1.454       .  A
C1972      C1977   1.386       .  A
C1973      C1974   1.451       .  A
C1973      H2434   1.071       .  S
C1974      C1992   1.510       .  S
C1974      C1975   1.381       .  A
C1975      C1976   1.376       .  A
C1975      H1979   1.087       .  S
C1976      C2240   1.423       .  S
C1976      C1977   1.378       .  A
C1977      H1980   1.086       .  S
H1978      C2429   1.071       .  S
O1981     Cu1989   2.076       .  S
O1981      C1991   1.288       .  A
O1982     Cu1989   2.074       .  S
O1982      C1992   1.285       .  A
O1983     Cu1989   2.056       .  S
O1983      C1993   1.286       .  A
O1984     Cu1989   2.047       .  S
O1984      C1994   1.286       .  A
O1985     Cu1990   2.070       .  S
O1985      C1994   1.266       .  A
O1986     Cu1990   2.081       .  S
O1986      C1993   1.263       .  A
O1987     Cu1990   2.063       .  S
O1987      C1992   1.267       .  A
O1988     Cu1990   2.080       .  S
O1988      C1991   1.264       .  A
Cu1989    Cu1990   2.272       .  S
C1993      C2004   1.522       .  S
C1994      C2045   1.511       .  S
C1995      C2032   1.511       .  S
C1995      C1996   1.455       .  A
C1995      C2000   1.373       .  A
C1996      C1997   1.460       .  A
C1996      H2457   1.071       .  S
C1997      C1998   1.380       .  A
C1998      C1999   1.369       .  A
C1998      H2002   1.086       .  S
C1999      C2211   1.407       .  S
C1999      C2000   1.371       .  A
C2000      H2003   1.088       .  S
H2001      C2452   1.071       .  S
C2004      C2005   1.379       .  A
C2004      C2009   1.460       .  A
C2005      C2006   1.369       .  A
C2005      H2010   1.087       .  S
C2006      C2263   1.407       .  S
C2006      C2007   1.372       .  A
C2007      C2008   1.375       .  A
C2007      H2011   1.087       .  S
C2008      C2033   1.513       .  S
C2008      C2009   1.455       .  A
C2009      H2468   1.070       .  S
H2012      C2465   1.070       .  S
C2013      C2014   1.375       .  A
C2013      C2018   1.446       .  A
C2014      C2015   1.375       .  A
C2014      H2019   1.087       .  S
C2015      C2222   1.409       .  S
C2015      C2016   1.372       .  A
C2016      C2017   1.382       .  A
C2016      H2020   1.086       .  S
C2017      C2034   1.510       .  S
C2017      C2018   1.453       .  A
C2018      H2933   1.066       .  S
H2021      C2930   1.066       .  S
O2022     Cu2030   2.064   1_554  S
O2022      C2032   1.267       .  A
O2023     Cu3398   2.069       .  S
O2023      C2033   1.269       .  A
O2024     Cu2942   2.059   1_554  S
O2024      C2034   1.263       .  A
O2025     Cu2486   2.066       .  S
O2025      C2035   1.264       .  A
O2026     Cu2031   2.060       .  S
O2026      C2035   1.287       .  A
O2027     Cu3399   2.061       .  S
O2027      C2034   1.287       .  A
O2028     Cu2943   2.078       .  S
O2028      C2033   1.286       .  A
O2029     Cu2487   2.077       .  S
O2029      C2032   1.286       .  A
Cu2030     O3391   2.069   1_545  S
Cu2030     O2936   2.059   1_546  S
Cu2030     O2481   2.066       .  S
Cu2030    Cu2487   2.278   1_556  S
Cu2031     O3395   2.061   1_545  S
Cu2031     O2940   2.078   1_545  S
Cu2031     O2485   2.077       .  S
Cu2031    Cu2486   2.278       .  S
C2035      C2120   1.514       .  S
C2036      C2037   1.449       .  A
C2036      C2041   1.382       .  A
C2037      C2038   1.444       .  A
C2037      H2498   1.072       .  S
C2038      C2075   1.501       .  S
C2038      C2039   1.383       .  A
C2039      C2040   1.376       .  A
C2039      H2043   1.086       .  S
C2040      C2227   1.419       .  S
C2040      C2041   1.375       .  A
C2041      H2044   1.086       .  S
H2042      C2493   1.072       .  S
C2045      C2046   1.384       .  A
C2045      C2050   1.448       .  A
C2046      C2047   1.376       .  A
C2046      H2051   1.086       .  S
C2047      C2245   1.421       .  S
C2047      C2048   1.376       .  A
C2048      C2049   1.382       .  A
C2048      H2052   1.086       .  S
C2049      C2076   1.498       .  S
C2049      C2050   1.443       .  A
C2050      H2509   1.073       .  S
H2053      C2506   1.073       .  S
C2054      C2055   1.377       .  A
C2054      C2059   1.461       .  A
C2055      C2056   1.373       .  A
C2055      H2060   1.087       .  S
C2056      C2236   1.408       .  S
C2056      C2057   1.370       .  A
C2057      C2058   1.377       .  A
C2057      H2061   1.087       .  S
C2058      C2073   1.532       .  S
C2058      C2059   1.468       .  A
C2059      H2974   1.070       .  S
H2062      C2971   1.070       .  S
O2063     Cu2071   2.081       .  S
O2063      C2073   1.264       .  A
O2064     Cu3439   2.086       .  S
O2064      C2074   1.266       .  A
O2065     Cu2527   2.059       .  S
O2065      C2075   1.269       .  A
O2066     Cu2983   2.055       .  S
O2066      C2076   1.267       .  A
O2067     Cu2984   2.058       .  S
O2067      C2076   1.281       .  A
O2068     Cu2528   2.061   1_554  S
O2068      C2075   1.282       .  A
O2069     Cu3440   2.084   1_554  S
O2069      C2074   1.292       .  A
O2070     Cu2072   2.085       .  S
O2070      C2073   1.292       .  A
Cu2071     O3432   2.086       .  S
Cu2071     O2521   2.059       .  S
Cu2071     O2978   2.055       .  S
Cu2071    Cu2072   2.277       .  S
Cu2072     O2979   2.058       .  S
Cu2072     O2524   2.061       .  S
Cu2072     O3437   2.084       .  S
C2074      C2131   1.534       .  S
C2077      C2078   1.377       .  A
C2077      C2082   1.447       .  A
C2078      C2079   1.375       .  A
C2078      H2083   1.087       .  S
C2079      C2267   1.409       .  S
C2079      C2080   1.371       .  A
C2080      C2081   1.381       .  A
C2080      H2084   1.087       .  S
C2081      C2114   1.512       .  S
C2081      C2082   1.456       .  A
C2082      H2997   1.069       .  S
H2085      C2994   1.069       .  S
C2086      C2117   1.525       .  S
C2086      C2087   1.381       .  A
C2086      C2091   1.461       .  A
C2087      C2088   1.370       .  A
C2087      H2092   1.086       .  S
C2088      C2254   1.408       .  S
C2088      C2089   1.370       .  A
C2089      C2090   1.374       .  A
C2089      H2093   1.087       .  S
C2090      C2091   1.458       .  A
C2095      C2116   1.501       .  S
C2095      C2096   1.443       .  A
C2095      C2100   1.375       .  A
C2096      C2097   1.449       .  A
C2097      C2098   1.380       .  A
C2098      C2099   1.370       .  A
C2098      H2102   1.087       .  S
C2099      C2238   1.406       .  S
C2099      C2100   1.373       .  A
C2100      H2103   1.087       .  S
O2104     Cu2112   2.058       .  S
O2104      C2114   1.262       .  A
O2105      C2115   1.267       .  A
O2106      C2116   1.269       .  A
O2107     Cu3024   2.093   1_545  S
O2107      C2117   1.265       .  A
O2108     Cu3025   2.054   1_545  S
O2108      C2117   1.286       .  A
O2109      C2116   1.283       .  A
O2110      C2115   1.287       .  A
O2111     Cu2113   2.075       .  S
O2111      C2114   1.290       .  A
Cu2112     O3019   2.093       .  S
Cu2112    Cu2113   2.282       .  S
Cu2113     O3020   2.054       .  S
C2115      C2136   1.518       .  S
C2118      C2155   1.506       .  S
C2118      C2119   1.445       .  A
C2118      C2123   1.381       .  A
C2119      C2120   1.451       .  A
C2119      H3036   1.072       .  S
C2120      C2121   1.384       .  A
C2121      C2122   1.376       .  A
C2121      H2125   1.086       .  S
C2122      C2258   1.419       .  S
C2122      C2123   1.377       .  A
C2123      H2126   1.087       .  S
H2124      C3031   1.072       .  S
C2127      C2156   1.525       .  S
C2127      C2128   1.385       .  A
C2127      C2132   1.458       .  A
C2128      C2129   1.379       .  A
C2128      H2133   1.086       .  S
C2129      C2272   1.424       .  S
C2129      C2130   1.377       .  A
C2130      C2131   1.382       .  A
C2130      H2134   1.086       .  S
C2131      C2132   1.464       .  A
C2132      H3047   1.072       .  S
H2135      C3044   1.072       .  S
C2136      C2137   1.458       .  A
C2136      C2141   1.382       .  A
C2137      C2138   1.461       .  A
C2137      H3054   1.074       .  S
C2138      C2157   1.534       .  S
C2138      C2139   1.385       .  A
C2139      C2140   1.378       .  A
C2139      H2143   1.086       .  S
C2140      C2249   1.423       .  S
C2140      C2141   1.376       .  A
C2141      H2144   1.086       .  S
H2142      C3049   1.074       .  S
O2145     Cu2153   2.070       .  S
O2145      C2155   1.284       .  A
O2146     Cu2153   2.086       .  S
O2146      C2156   1.286       .  A
O2147     Cu2153   2.074       .  S
O2147      C2157   1.290       .  A
O2148     Cu2153   2.084       .  S
O2148      C2158   1.288       .  A
O2149     Cu2154   2.083       .  S
O2149      C2158   1.271       .  A
O2150     Cu2154   2.093       .  S
O2150      C2157   1.269       .  A
O2151     Cu2154   2.087       .  S
O2151      C2156   1.273       .  A
O2152     Cu2154   2.060       .  S
O2152      C2155   1.269       .  A
Cu2153    Cu2154   2.296       .  S
C2158      C2179   1.526       .  S
C2159      C2160   1.388       .  A
C2159      C2164   1.451       .  A
C2160      C2161   1.377       .  A
C2160      H2165   1.086       .  S
C2161      C2231   1.421       .  S
C2161      C2162   1.374       .  A
C2162      C2163   1.380       .  A
C2162      H2166   1.087       .  S
C2163      C2205   1.500       .  S
C2163      C2164   1.449       .  A
C2164      H3079   1.075       .  S
H2167      C3076   1.075       .  S
C2168      C2169   1.379       .  A
C2168      C2173   1.463       .  A
C2169      C2170   1.370       .  A
C2169      H2174   1.086       .  S
C2170      C2218   1.409       .  S
C2170      C2171   1.372       .  A
C2171      C2172   1.376       .  A
C2171      H2175   1.087       .  S
C2172      C2208   1.515       .  S
C2172      C2173   1.456       .  A
C2177      C2206   1.529       .  S
C2177      C2178   1.466       .  A
C2177      C2182   1.381       .  A
C2178      C2179   1.459       .  A
C2178      H3095   1.071       .  S
C2179      C2180   1.374       .  A
C2180      C2181   1.375       .  A
C2180      H2184   1.087       .  S
C2181      C2209   1.411       .  S
C2181      C2182   1.372       .  A
C2182      H2185   1.086       .  S
H2183      C3090   1.071       .  S
C2186      C2187   1.381       .  A
C2186      C2191   1.443       .  A
C2187      C2188   1.374       .  A
C2187      H2192   1.086       .  S
C2188      C2276   1.419       .  S
C2188      C2189   1.376       .  A
C2189      C2190   1.385       .  A
C2189      H2193   1.086       .  S
C2190      C2207   1.512       .  S
C2190      C2191   1.448       .  A
O2195      C2205   1.286       .  A
O2196     Cu2203   2.088   1_655  S
O2196      C2206   1.290       .  A
O2197      C2207   1.286       .  A
O2198     Cu3115   2.068   1_655  S
O2198      C2208   1.284       .  A
O2199     Cu2204   2.077   1_655  S
O2199      C2208   1.270       .  A
O2200      C2207   1.266       .  A
O2201     Cu3116   2.085   1_655  S
O2201      C2206   1.263       .  A
O2202      C2205   1.264       .  A
Cu2203     O3110   2.068   1_445  S
Cu2203    Cu3116   2.283       .  S
Cu2204     O3113   2.085   1_455  S
Cu2204    Cu3115   2.283       .  S
C2209      C2210   1.374       .  A
C2209      C2214   1.384       .  A
C2210      C2211   1.372       .  A
C2210      H2215   1.086       .  S
C2211      C2212   1.386       .  A
C2212      C2213   1.377       .  A
C2212      H2216   1.086       .  S
C2213      C2214   1.385       .  A
C2214      H2217   1.086       .  S
C2218      C2219   1.388       .  A
C2218      C2223   1.372       .  A
C2219      C2220   1.378       .  A
C2219      H2224   1.086       .  S
C2220      C2221   1.386       .  A
C2221      C2222   1.382       .  A
C2221      H2225   1.086       .  S
C2222      C2223   1.374       .  A
C2223      H2226   1.086       .  S
C2227      C2228   1.390       .  A
C2227      C2232   1.374       .  A
C2228      C2229   1.379       .  A
C2228      H2233   1.086       .  S
C2229      C2230   1.391       .  A
C2230      C2231   1.378       .  A
C2230      H2234   1.085       .  S
C2231      C2232   1.387       .  A
C2232      H2235   1.086       .  S
C2236      C2237   1.371       .  A
C2236      C2241   1.388       .  A
C2237      C2238   1.373       .  A
C2237      H2242   1.087       .  S
C2238      C2239   1.381       .  A
C2239      C2240   1.385       .  A
C2239      H2243   1.086       .  S
C2240      C2241   1.379       .  A
C2241      H2244   1.085       .  S
C2245      C2246   1.389       .  A
C2245      C2250   1.376       .  A
C2246      C2247   1.378       .  A
C2246      H2251   1.086       .  S
C2247      C2248   1.390       .  A
C2248      C2249   1.379       .  A
C2248      H2252   1.085       .  S
C2249      C2250   1.388       .  A
C2250      H2253   1.086       .  S
C2254      C2255   1.373       .  A
C2254      C2259   1.385       .  A
C2255      C2256   1.376       .  A
C2255      H2260   1.086       .  S
C2256      C2257   1.383       .  A
C2257      C2258   1.386       .  A
C2257      H2261   1.086       .  S
C2258      C2259   1.375       .  A
C2259      H2262   1.086       .  S
C2263      C2264   1.386       .  A
C2263      C2268   1.372       .  A
C2264      C2265   1.378       .  A
C2264      H2269   1.086       .  S
C2265      C2266   1.386       .  A
C2266      C2267   1.384       .  A
C2266      H2270   1.085       .  S
C2267      C2268   1.373       .  A
C2268      H2271   1.086       .  S
C2272      C2273   1.393       .  A
C2272      C2277   1.376       .  A
C2273      C2274   1.380       .  A
C2273      H2278   1.085       .  S
C2274      C2275   1.389       .  A
C2275      C2276   1.376       .  A
C2275      H2279   1.086       .  S
C2276      C2277   1.388       .  A
C2277      H2280   1.086       .  S
O2281     Cu2289   2.060       .  S
O2281      C2291   1.282       .  A
O2282     Cu2289   2.054       .  S
O2282      C2292   1.285       .  A
O2283     Cu2289   2.072       .  S
O2283      C2293   1.289       .  A
O2284     Cu2289   2.080       .  S
O2284      C2294   1.290       .  A
O2285     Cu2290   2.107       .  S
O2285      C2294   1.267       .  A
O2286     Cu2290   2.086       .  S
O2286      C2293   1.267       .  A
O2287     Cu2290   2.056       .  S
O2287      C2292   1.260       .  A
O2288     Cu2290   2.043       .  S
O2288      C2291   1.266       .  A
Cu2289    Cu2290   2.270       .  S
C2291      C2642   1.495       .  S
C2292      C2553   1.504       .  S
C2293      C2348   1.527       .  S
C2294      C2398   1.541       .  S
O2295     Cu2303   2.050       .  S
O2295      C2305   1.286       .  A
O2296     Cu2303   2.057       .  S
O2296      C2306   1.284       .  A
O2297     Cu2303   2.084       .  S
O2297      C2307   1.287       .  A
O2298     Cu2303   2.068       .  S
O2298      C2308   1.286       .  A
O2299     Cu2304   2.059       .  S
O2299      C2308   1.269       .  A
O2300     Cu2304   2.085       .  S
O2300      C2307   1.271       .  A
O2301     Cu2304   2.071       .  S
O2301      C2306   1.270       .  A
O2302     Cu2304   2.080       .  S
O2302      C2305   1.269       .  A
Cu2303    Cu2304   2.294       .  S
C2305      C2615   1.520       .  S
C2306      C2533   1.509       .  S
C2307      C2510   1.525       .  S
C2308      C2469   1.507       .  S
O2309     Cu2317   2.048       .  S
O2309      C2319   1.285       .  A
O2310     Cu2317   2.063       .  S
O2310      C2320   1.286       .  A
O2311     Cu2317   2.073       .  S
O2311      C2321   1.290       .  A
O2312     Cu2317   2.080       .  S
O2312      C2322   1.287       .  A
O2313     Cu2318   2.061       .  S
O2313      C2322   1.267       .  A
O2314     Cu2318   2.080       .  S
O2314      C2321   1.262       .  A
O2315     Cu2318   2.092       .  S
O2315      C2320   1.267       .  A
O2316     Cu2318   2.062       .  S
O2316      C2319   1.265       .  A
Cu2317    Cu2318   2.269       .  S
C2319      C2357   1.506       .  S
C2320      C2389   1.524       .  S
C2321      C2624   1.524       .  S
C2322      C2546   1.512       .  S
O2323     Cu2331   2.074       .  S
O2323      C2333   1.288       .  A
O2324     Cu2331   2.077       .  S
O2324      C2334   1.285       .  A
O2325     Cu2331   2.056       .  S
O2325      C2335   1.286       .  A
O2326     Cu2331   2.049       .  S
O2326      C2336   1.286       .  A
O2327     Cu2332   2.067       .  S
O2327      C2336   1.264       .  A
O2328     Cu2332   2.083       .  S
O2328      C2335   1.263       .  A
O2329     Cu2332   2.061       .  S
O2329      C2334   1.267       .  A
O2330     Cu2332   2.087       .  S
O2330      C2333   1.266       .  A
Cu2331    Cu2332   2.272       .  S
C2333      C2380   1.525       .  S
C2334      C2337   1.510       .  S
C2335      C2453   1.521       .  S
C2336      C2492   1.512       .  S
C2337      C2338   1.383       .  A
C2337      C2342   1.452       .  A
C2338      C2339   1.376       .  A
C2338      H2343   1.086       .  S
C2339      C2730   1.426       .  S
C2339      C2340   1.379       .  A
C2340      C2341   1.387       .  A
C2340      H2344   1.086       .  S
C2341      C2374   1.527       .  S
C2341      C2342   1.455       .  A
C2346      C2377   1.517       .  S
C2346      C2347   1.453       .  A
C2346      C2351   1.385       .  A
C2347      C2348   1.458       .  A
C2348      C2349   1.383       .  A
C2349      C2350   1.377       .  A
C2349      H2353   1.086       .  S
C2350      C2703   1.424       .  S
C2350      C2351   1.377       .  A
C2351      H2354   1.086       .  S
C2355      C2376   1.498       .  S
C2355      C2356   1.441       .  A
C2355      C2360   1.382       .  A
C2356      C2357   1.445       .  A
C2357      C2358   1.384       .  A
C2358      C2359   1.376       .  A
C2358      H2362   1.086       .  S
C2359      C2669   1.419       .  S
C2359      C2360   1.376       .  A
C2360      H2363   1.086       .  S
O2364      C2374   1.270       .  A
O2365     Cu2372   2.078   1_556  S
O2365      C2375   1.271       .  A
O2366      C2376   1.269       .  A
O2367      C2377   1.272       .  A
O2368      C2377   1.285       .  A
O2369      C2376   1.283       .  A
O2370     Cu2373   2.068   1_556  S
O2370      C2375   1.286       .  A
O2371      C2374   1.288       .  A
Cu2372    Cu2373   2.300       .  S
C2375      C2419   1.518       .  S
C2378      C2415   1.516       .  S
C2378      C2379   1.453       .  A
C2378      C2383   1.382       .  A
C2379      C2380   1.458       .  A
C2380      C2381   1.385       .  A
C2381      C2382   1.377       .  A
C2381      H2385   1.086       .  S
C2382      C2676   1.422       .  S
C2382      C2383   1.376       .  A
C2383      H2386   1.086       .  S
C2387      C2417   1.516       .  S
C2387      C2388   1.453       .  A
C2387      C2392   1.382       .  A
C2388      C2389   1.456       .  A
C2389      C2390   1.385       .  A
C2390      C2391   1.377       .  A
C2390      H2394   1.086       .  S
C2391      C2721   1.422       .  S
C2391      C2392   1.378       .  A
C2392      H2395   1.086       .  S
C2396      C2418   1.531       .  S
C2396      C2397   1.463       .  A
C2396      C2401   1.384       .  A
C2397      C2398   1.466       .  A
C2398      C2399   1.383       .  A
C2399      C2400   1.378       .  A
C2399      H2403   1.086       .  S
C2400      C2685   1.426       .  S
C2400      C2401   1.378       .  A
C2401      H2404   1.086       .  S
O2405      C2415   1.285       .  A
O2406      C2416   1.288       .  A
O2407     Cu2413   2.082       .  S
O2407      C2417   1.288       .  A
O2408      C2418   1.288       .  A
O2409      C2418   1.273       .  A
O2410      C2417   1.271       .  A
O2411      C2416   1.269       .  A
O2412     Cu2414   2.075       .  S
O2412      C2415   1.271       .  A
C2416      C2428   1.523       .  S
C2419      C2420   1.453       .  A
C2419      C2424   1.376       .  A
C2420      C2421   1.460       .  A
C2421      C2447   1.521       .  S
C2421      C2422   1.382       .  A
C2422      C2423   1.372       .  A
C2422      H2426   1.086       .  S
C2423      C2712   1.412       .  S
C2423      C2424   1.375       .  A
C2424      H2427   1.087       .  S
C2428      C2429   1.454       .  A
C2428      C2433   1.386       .  A
C2429      C2430   1.451       .  A
C2430      C2448   1.510       .  S
C2430      C2431   1.381       .  A
C2431      C2432   1.376       .  A
C2431      H2435   1.087       .  S
C2432      C2696   1.422       .  S
C2432      C2433   1.378       .  A
C2433      H2436   1.086       .  S
O2437     Cu2445   2.076       .  S
O2437      C2447   1.288       .  A
O2438     Cu2445   2.074       .  S
O2438      C2448   1.285       .  A
O2439     Cu2445   2.056       .  S
O2439      C2449   1.286       .  A
O2440     Cu2445   2.047       .  S
O2440      C2450   1.286       .  A
O2441     Cu2446   2.070       .  S
O2441      C2450   1.266       .  A
O2442     Cu2446   2.081       .  S
O2442      C2449   1.263       .  A
O2443     Cu2446   2.063       .  S
O2443      C2448   1.267       .  A
O2444     Cu2446   2.080       .  S
O2444      C2447   1.264       .  A
Cu2445    Cu2446   2.272       .  S
C2449      C2460   1.522       .  S
C2450      C2501   1.511       .  S
C2451      C2488   1.511       .  S
C2451      C2452   1.455       .  A
C2451      C2456   1.373       .  A
C2452      C2453   1.460       .  A
C2453      C2454   1.380       .  A
C2454      C2455   1.369       .  A
C2454      H2458   1.086       .  S
C2455      C2667   1.407       .  S
C2455      C2456   1.371       .  A
C2456      H2459   1.088       .  S
C2460      C2461   1.379       .  A
C2460      C2465   1.460       .  A
C2461      C2462   1.369       .  A
C2461      H2466   1.087       .  S
C2462      C2719   1.407       .  S
C2462      C2463   1.372       .  A
C2463      C2464   1.375       .  A
C2463      H2467   1.087       .  S
C2464      C2489   1.513       .  S
C2464      C2465   1.455       .  A
C2469      C2470   1.375       .  A
C2469      C2474   1.446       .  A
C2470      C2471   1.375       .  A
C2470      H2475   1.087       .  S
C2471      C2678   1.409       .  S
C2471      C2472   1.372       .  A
C2472      C2473   1.382       .  A
C2472      H2476   1.086       .  S
C2473      C2490   1.510       .  S
C2473      C2474   1.453       .  A
C2474      H3389   1.066       .  S
H2477      C3386   1.066       .  S
O2478     Cu2486   2.064       .  S
O2478      C2488   1.267       .  A
O2479     Cu2942   2.069       .  S
O2479      C2489   1.269       .  A
O2480     Cu3398   2.059       .  S
O2480      C2490   1.263       .  A
O2481      C2491   1.264       .  A
O2482     Cu2487   2.060   1_556  S
O2482      C2491   1.287       .  A
O2483     Cu2943   2.061       .  S
O2483      C2490   1.287       .  A
O2484     Cu3399   2.078   1_556  S
O2484      C2489   1.286       .  A
O2485      C2488   1.286       .  A
Cu2486     O2935   2.069   1_545  S
Cu2486     O3392   2.059   1_545  S
Cu2487     O2939   2.061   1_545  S
Cu2487     O3396   2.078   1_544  S
C2491      C2576   1.514       .  S
C2492      C2493   1.449       .  A
C2492      C2497   1.382       .  A
C2493      C2494   1.444       .  A
C2494      C2531   1.501       .  S
C2494      C2495   1.383       .  A
C2495      C2496   1.376       .  A
C2495      H2499   1.086       .  S
C2496      C2683   1.419       .  S
C2496      C2497   1.375       .  A
C2497      H2500   1.086       .  S
C2501      C2502   1.384       .  A
C2501      C2506   1.448       .  A
C2502      C2503   1.376       .  A
C2502      H2507   1.086       .  S
C2503      C2701   1.421       .  S
C2503      C2504   1.376       .  A
C2504      C2505   1.382       .  A
C2504      H2508   1.086       .  S
C2505      C2532   1.498       .  S
C2505      C2506   1.443       .  A
C2510      C2511   1.377       .  A
C2510      C2515   1.461       .  A
C2511      C2512   1.373       .  A
C2511      H2516   1.087       .  S
C2512      C2692   1.408       .  S
C2512      C2513   1.370       .  A
C2513      C2514   1.377       .  A
C2513      H2517   1.087       .  S
C2514      C2529   1.532       .  S
C2514      C2515   1.468       .  A
C2515      H3430   1.070       .  S
H2518      C3427   1.070       .  S
O2519     Cu2527   2.081   1_556  S
O2519      C2529   1.264       .  A
O2520     Cu2983   2.086       .  S
O2520      C2530   1.266       .  A
O2521      C2531   1.269       .  A
O2522     Cu3439   2.055   1_556  S
O2522      C2532   1.267       .  A
O2523     Cu3440   2.057       .  S
O2523      C2532   1.281       .  A
O2524      C2531   1.282       .  A
O2525     Cu2984   2.084       .  S
O2525      C2530   1.292       .  A
O2526     Cu2528   2.085       .  S
O2526      C2529   1.292       .  A
Cu2527     O2976   2.086       .  S
Cu2527     O3434   2.055   1_554  S
Cu2527    Cu2528   2.277   1_554  S
Cu2528     O3435   2.058       .  S
Cu2528     O2981   2.084   1_556  S
C2530      C2587   1.534       .  S
C2533      C2534   1.376       .  A
C2533      C2538   1.447       .  A
C2534      C2535   1.375       .  A
C2534      H2539   1.087       .  S
C2535      C2723   1.409       .  S
C2535      C2536   1.371       .  A
C2536      C2537   1.381       .  A
C2536      H2540   1.087       .  S
C2537      C2570   1.512       .  S
C2537      C2538   1.456       .  A
C2538      H3453   1.069       .  S
H2541      C3450   1.069       .  S
C2542      C2573   1.525       .  S
C2542      C2543   1.381       .  A
C2542      C2547   1.461       .  A
C2543      C2544   1.370       .  A
C2543      H2548   1.086       .  S
C2544      C2710   1.408       .  S
C2544      C2545   1.370       .  A
C2545      C2546   1.374       .  A
C2545      H2549   1.087       .  S
C2546      C2547   1.458       .  A
C2551      C2572   1.501       .  S
C2551      C2552   1.443       .  A
C2551      C2556   1.375       .  A
C2552      C2553   1.449       .  A
C2553      C2554   1.380       .  A
C2554      C2555   1.370       .  A
C2554      H2558   1.087       .  S
C2555      C2694   1.406       .  S
C2555      C2556   1.373       .  A
C2556      H2559   1.087       .  S
O2560     Cu2568   2.058       .  S
O2560      C2570   1.262       .  A
O2561      C2571   1.267       .  A
O2562      C2572   1.269       .  A
O2563     Cu3480   2.093   1_545  S
O2563      C2573   1.265       .  A
O2564     Cu3481   2.054   1_545  S
O2564      C2573   1.286       .  A
O2565      C2572   1.283       .  A
O2566      C2571   1.287       .  A
O2567     Cu2569   2.075       .  S
O2567      C2570   1.290       .  A
Cu2568     O3475   2.094       .  S
Cu2568    Cu2569   2.282       .  S
Cu2569     O3476   2.054       .  S
C2571      C2592   1.518       .  S
C2574      C2611   1.505       .  S
C2574      C2575   1.445       .  A
C2574      C2579   1.381       .  A
C2575      C2576   1.451       .  A
C2575      H3492   1.072       .  S
C2576      C2577   1.384       .  A
C2577      C2578   1.376       .  A
C2577      H2581   1.086       .  S
C2578      C2714   1.419       .  S
C2578      C2579   1.377       .  A
C2579      H2582   1.087       .  S
H2580      C3487   1.072       .  S
C2583      C2612   1.525       .  S
C2583      C2584   1.385       .  A
C2583      C2588   1.458       .  A
C2584      C2585   1.379       .  A
C2584      H2589   1.086       .  S
C2585      C2728   1.424       .  S
C2585      C2586   1.377       .  A
C2586      C2587   1.382       .  A
C2586      H2590   1.086       .  S
C2587      C2588   1.464       .  A
C2588      H3503   1.072       .  S
H2591      C3500   1.072       .  S
C2592      C2593   1.458       .  A
C2592      C2597   1.382       .  A
C2593      C2594   1.461       .  A
C2593      H3510   1.074       .  S
C2594      C2613   1.534       .  S
C2594      C2595   1.385       .  A
C2595      C2596   1.378       .  A
C2595      H2599   1.086       .  S
C2596      C2705   1.423       .  S
C2596      C2597   1.376       .  A
C2597      H2600   1.086       .  S
H2598      C3505   1.074       .  S
O2601     Cu2609   2.070       .  S
O2601      C2611   1.284       .  A
O2602     Cu2609   2.086       .  S
O2602      C2612   1.286       .  A
O2603     Cu2609   2.074       .  S
O2603      C2613   1.290       .  A
O2604     Cu2609   2.084       .  S
O2604      C2614   1.288       .  A
O2605     Cu2610   2.083       .  S
O2605      C2614   1.271       .  A
O2606     Cu2610   2.093       .  S
O2606      C2613   1.269       .  A
O2607     Cu2610   2.087       .  S
O2607      C2612   1.273       .  A
O2608     Cu2610   2.060       .  S
O2608      C2611   1.269       .  A
Cu2609    Cu2610   2.296       .  S
C2614      C2635   1.526       .  S
C2615      C2616   1.388       .  A
C2615      C2620   1.451       .  A
C2616      C2617   1.377       .  A
C2616      H2621   1.086       .  S
C2617      C2687   1.421       .  S
C2617      C2618   1.374       .  A
C2618      C2619   1.380       .  A
C2618      H2622   1.087       .  S
C2619      C2661   1.500       .  S
C2619      C2620   1.449       .  A
C2620      H3535   1.075       .  S
H2623      C3532   1.075       .  S
C2624      C2625   1.379       .  A
C2624      C2629   1.463       .  A
C2625      C2626   1.370       .  A
C2625      H2630   1.086       .  S
C2626      C2674   1.409       .  S
C2626      C2627   1.372       .  A
C2627      C2628   1.376       .  A
C2627      H2631   1.087       .  S
C2628      C2664   1.515       .  S
C2628      C2629   1.456       .  A
C2633      C2662   1.529       .  S
C2633      C2634   1.466       .  A
C2633      C2638   1.381       .  A
C2634      C2635   1.459       .  A
C2634      H3551   1.071       .  S
C2635      C2636   1.374       .  A
C2636      C2637   1.375       .  A
C2636      H2640   1.087       .  S
C2637      C2665   1.411       .  S
C2637      C2638   1.372       .  A
C2638      H2641   1.086       .  S
H2639      C3546   1.070       .  S
C2642      C2643   1.381       .  A
C2642      C2647   1.443       .  A
C2643      C2644   1.374       .  A
C2643      H2648   1.086       .  S
C2644      C2732   1.419       .  S
C2644      C2645   1.376       .  A
C2645      C2646   1.385       .  A
C2645      H2649   1.086       .  S
C2646      C2663   1.512       .  S
C2646      C2647   1.448       .  A
O2651      C2661   1.286       .  A
O2652     Cu2659   2.088   1_655  S
O2652      C2662   1.290       .  A
O2653      C2663   1.286       .  A
O2654     Cu3571   2.068   1_655  S
O2654      C2664   1.284       .  A
O2655     Cu2660   2.077   1_655  S
O2655      C2664   1.270       .  A
O2656      C2663   1.266       .  A
O2657     Cu3572   2.085   1_655  S
O2657      C2662   1.263       .  A
O2658      C2661   1.264       .  A
Cu2659     O3566   2.068   1_445  S
Cu2659    Cu3572   2.283       .  S
Cu2660     O3569   2.085   1_455  S
Cu2660    Cu3571   2.283       .  S
C2665      C2666   1.374       .  A
C2665      C2670   1.384       .  A
C2666      C2667   1.372       .  A
C2666      H2671   1.086       .  S
C2667      C2668   1.386       .  A
C2668      C2669   1.377       .  A
C2668      H2672   1.086       .  S
C2669      C2670   1.385       .  A
C2670      H2673   1.086       .  S
C2674      C2675   1.388       .  A
C2674      C2679   1.372       .  A
C2675      C2676   1.378       .  A
C2675      H2680   1.086       .  S
C2676      C2677   1.386       .  A
C2677      C2678   1.382       .  A
C2677      H2681   1.086       .  S
C2678      C2679   1.374       .  A
C2679      H2682   1.086       .  S
C2683      C2684   1.390       .  A
C2683      C2688   1.374       .  A
C2684      C2685   1.379       .  A
C2684      H2689   1.086       .  S
C2685      C2686   1.391       .  A
C2686      C2687   1.378       .  A
C2686      H2690   1.085       .  S
C2687      C2688   1.387       .  A
C2688      H2691   1.086       .  S
C2692      C2693   1.371       .  A
C2692      C2697   1.388       .  A
C2693      C2694   1.373       .  A
C2693      H2698   1.087       .  S
C2694      C2695   1.381       .  A
C2695      C2696   1.385       .  A
C2695      H2699   1.086       .  S
C2696      C2697   1.379       .  A
C2697      H2700   1.085       .  S
C2701      C2702   1.389       .  A
C2701      C2706   1.376       .  A
C2702      C2703   1.378       .  A
C2702      H2707   1.086       .  S
C2703      C2704   1.390       .  A
C2704      C2705   1.379       .  A
C2704      H2708   1.085       .  S
C2705      C2706   1.388       .  A
C2706      H2709   1.086       .  S
C2710      C2711   1.373       .  A
C2710      C2715   1.385       .  A
C2711      C2712   1.376       .  A
C2711      H2716   1.086       .  S
C2712      C2713   1.383       .  A
C2713      C2714   1.386       .  A
C2713      H2717   1.086       .  S
C2714      C2715   1.375       .  A
C2715      H2718   1.086       .  S
C2719      C2720   1.386       .  A
C2719      C2724   1.372       .  A
C2720      C2721   1.378       .  A
C2720      H2725   1.086       .  S
C2721      C2722   1.386       .  A
C2722      C2723   1.384       .  A
C2722      H2726   1.085       .  S
C2723      C2724   1.373       .  A
C2724      H2727   1.087       .  S
C2728      C2729   1.393       .  A
C2728      C2733   1.376       .  A
C2729      C2730   1.380       .  A
C2729      H2734   1.085       .  S
C2730      C2731   1.389       .  A
C2731      C2732   1.376       .  A
C2731      H2735   1.086       .  S
C2732      C2733   1.388       .  A
C2733      H2736   1.086       .  S
O2737     Cu2745   2.060       .  S
O2737      C2747   1.282       .  A
O2738     Cu2745   2.054       .  S
O2738      C2748   1.285       .  A
O2739     Cu2745   2.072       .  S
O2739      C2749   1.289       .  A
O2740     Cu2745   2.080       .  S
O2740      C2750   1.290       .  A
O2741     Cu2746   2.107       .  S
O2741      C2750   1.267       .  A
O2742     Cu2746   2.086       .  S
O2742      C2749   1.267       .  A
O2743     Cu2746   2.056       .  S
O2743      C2748   1.260       .  A
O2744     Cu2746   2.043       .  S
O2744      C2747   1.266       .  A
Cu2745    Cu2746   2.270       .  S
C2747      C3098   1.495       .  S
C2748      C3009   1.504       .  S
C2749      C2804   1.527       .  S
C2750      C2854   1.541       .  S
O2751     Cu2759   2.050       .  S
O2751      C2761   1.286       .  A
O2752     Cu2759   2.056       .  S
O2752      C2762   1.284       .  A
O2753     Cu2759   2.084       .  S
O2753      C2763   1.287       .  A
O2754     Cu2759   2.068       .  S
O2754      C2764   1.286       .  A
O2755     Cu2760   2.059       .  S
O2755      C2764   1.269       .  A
O2756     Cu2760   2.085       .  S
O2756      C2763   1.271       .  A
O2757     Cu2760   2.071       .  S
O2757      C2762   1.270       .  A
O2758     Cu2760   2.080       .  S
O2758      C2761   1.269       .  A
Cu2759    Cu2760   2.294       .  S
C2761      C3071   1.520       .  S
C2762      C2989   1.509       .  S
C2763      C2966   1.525       .  S
C2764      C2925   1.507       .  S
O2765     Cu2773   2.048       .  S
O2765      C2775   1.285       .  A
O2766     Cu2773   2.063       .  S
O2766      C2776   1.286       .  A
O2767     Cu2773   2.073       .  S
O2767      C2777   1.290       .  A
O2768     Cu2773   2.080       .  S
O2768      C2778   1.287       .  A
O2769     Cu2774   2.061       .  S
O2769      C2778   1.267       .  A
O2770     Cu2774   2.080       .  S
O2770      C2777   1.262       .  A
O2771     Cu2774   2.092       .  S
O2771      C2776   1.267       .  A
O2772     Cu2774   2.062       .  S
O2772      C2775   1.265       .  A
Cu2773    Cu2774   2.269       .  S
C2775      C2813   1.506       .  S
C2776      C2845   1.524       .  S
C2777      C3080   1.524       .  S
C2778      C3002   1.512       .  S
O2779     Cu2787   2.074       .  S
O2779      C2789   1.288       .  A
O2780     Cu2787   2.077       .  S
O2780      C2790   1.285       .  A
O2781     Cu2787   2.056       .  S
O2781      C2791   1.286       .  A
O2782     Cu2787   2.049       .  S
O2782      C2792   1.286       .  A
O2783     Cu2788   2.067       .  S
O2783      C2792   1.264       .  A
O2784     Cu2788   2.083       .  S
O2784      C2791   1.264       .  A
O2785     Cu2788   2.061       .  S
O2785      C2790   1.267       .  A
O2786     Cu2788   2.087       .  S
O2786      C2789   1.266       .  A
Cu2787    Cu2788   2.271       .  S
C2789      C2836   1.525       .  S
C2790      C2793   1.510       .  S
C2791      C2909   1.521       .  S
C2792      C2948   1.512       .  S
C2793      C2794   1.383       .  A
C2793      C2798   1.452       .  A
C2794      C2795   1.376       .  A
C2794      H2799   1.086       .  S
C2795      C3186   1.426       .  S
C2795      C2796   1.379       .  A
C2796      C2797   1.387       .  A
C2796      H2800   1.086       .  S
C2797      C2830   1.527       .  S
C2797      C2798   1.455       .  A
C2798      H3257   1.074       .  S
H2801      C3254   1.074       .  S
C2802      C2833   1.517       .  S
C2802      C2803   1.453       .  A
C2802      C2807   1.385       .  A
C2803      C2804   1.458       .  A
C2804      C2805   1.383       .  A
C2805      C2806   1.377       .  A
C2805      H2809   1.086       .  S
C2806      C3159   1.424       .  S
C2806      C2807   1.377       .  A
C2807      H2810   1.086       .  S
C2811      C2832   1.498       .  S
C2811      C2812   1.441       .  A
C2811      C2816   1.382       .  A
C2812      C2813   1.445       .  A
C2813      C2814   1.384       .  A
C2814      C2815   1.376       .  A
C2814      H2818   1.086       .  S
C2815      C3125   1.419       .  S
C2815      C2816   1.376       .  A
C2816      H2819   1.086       .  S
O2820      C2830   1.270       .  A
O2821     Cu2828   2.078       .  S
O2821      C2831   1.271       .  A
O2822     Cu3284   2.052       .  S
O2822      C2832   1.269       .  A
O2823      C2833   1.272       .  A
O2824      C2833   1.285       .  A
O2825     Cu3285   2.056       .  S
O2825      C2832   1.283       .  A
O2826     Cu2829   2.068       .  S
O2826      C2831   1.286       .  A
O2827      C2830   1.288       .  A
Cu2828     O3278   2.052       .  S
Cu2828    Cu2829   2.300       .  S
Cu2829     O3281   2.056       .  S
C2831      C2875   1.518       .  S
C2834      C2871   1.516       .  S
C2834      C2835   1.453       .  A
C2834      C2839   1.382       .  A
C2835      C2836   1.458       .  A
C2835      H3296   1.073       .  S
C2836      C2837   1.385       .  A
C2837      C2838   1.377       .  A
C2837      H2841   1.086       .  S
C2838      C3132   1.422       .  S
C2838      C2839   1.376       .  A
C2839      H2842   1.086       .  S
H2840      C3291   1.073       .  S
C2843      C2873   1.516       .  S
C2843      C2844   1.453       .  A
C2843      C2848   1.382       .  A
C2844      C2845   1.456       .  A
C2845      C2846   1.385       .  A
C2846      C2847   1.377       .  A
C2846      H2850   1.086       .  S
C2847      C3177   1.422       .  S
C2847      C2848   1.378       .  A
C2848      H2851   1.086       .  S
C2852      C2874   1.531       .  S
C2852      C2853   1.463       .  A
C2852      C2857   1.384       .  A
C2853      C2854   1.466       .  A
C2854      C2855   1.383       .  A
C2855      C2856   1.378       .  A
C2855      H2859   1.086       .  S
C2856      C3141   1.427       .  S
C2856      C2857   1.378       .  A
C2857      H2860   1.086       .  S
O2861     Cu3325   2.072   1_554  S
O2861      C2871   1.285       .  A
O2862      C2872   1.288       .  A
O2863     Cu2869   2.082       .  S
O2863      C2873   1.288       .  A
O2864      C2874   1.288       .  A
O2865      C2874   1.273       .  A
O2866     Cu3326   2.070       .  S
O2866      C2873   1.271       .  A
O2867      C2872   1.269       .  A
O2868     Cu2870   2.075   1_554  S
O2868      C2871   1.271       .  A
Cu2869     O3317   2.072       .  S
Cu2869    Cu3326   2.301       .  S
Cu2870     O3322   2.070       .  S
Cu2870    Cu3325   2.301       .  S
C2872      C2884   1.523       .  S
C2875      C2876   1.453       .  A
C2875      C2880   1.376       .  A
C2876      C2877   1.460       .  A
C2876      H3337   1.070       .  S
C2877      C2903   1.521       .  S
C2877      C2878   1.382       .  A
C2878      C2879   1.372       .  A
C2878      H2882   1.086       .  S
C2879      C3168   1.412       .  S
C2879      C2880   1.375       .  A
C2880      H2883   1.087       .  S
H2881      C3332   1.070       .  S
C2884      C2885   1.454       .  A
C2884      C2889   1.386       .  A
C2885      C2886   1.451       .  A
C2885      H3346   1.071       .  S
C2886      C2904   1.510       .  S
C2886      C2887   1.381       .  A
C2887      C2888   1.376       .  A
C2887      H2891   1.087       .  S
C2888      C3152   1.423       .  S
C2888      C2889   1.378       .  A
C2889      H2892   1.086       .  S
H2890      C3341   1.071       .  S
O2893     Cu2901   2.076       .  S
O2893      C2903   1.288       .  A
O2894     Cu2901   2.074       .  S
O2894      C2904   1.285       .  A
O2895     Cu2901   2.056       .  S
O2895      C2905   1.286       .  A
O2896     Cu2901   2.047       .  S
O2896      C2906   1.286       .  A
O2897     Cu2902   2.070       .  S
O2897      C2906   1.266       .  A
O2898     Cu2902   2.081       .  S
O2898      C2905   1.263       .  A
O2899     Cu2902   2.063       .  S
O2899      C2904   1.267       .  A
O2900     Cu2902   2.079       .  S
O2900      C2903   1.264       .  A
Cu2901    Cu2902   2.272       .  S
C2905      C2916   1.522       .  S
C2906      C2957   1.511       .  S
C2907      C2944   1.511       .  S
C2907      C2908   1.455       .  A
C2907      C2912   1.373       .  A
C2908      C2909   1.460       .  A
C2908      H3369   1.071       .  S
C2909      C2910   1.380       .  A
C2910      C2911   1.369       .  A
C2910      H2914   1.086       .  S
C2911      C3123   1.407       .  S
C2911      C2912   1.371       .  A
C2912      H2915   1.088       .  S
H2913      C3364   1.071       .  S
C2916      C2917   1.379       .  A
C2916      C2921   1.460       .  A
C2917      C2918   1.369       .  A
C2917      H2922   1.087       .  S
C2918      C3175   1.407       .  S
C2918      C2919   1.372       .  A
C2919      C2920   1.375       .  A
C2919      H2923   1.087       .  S
C2920      C2945   1.513       .  S
C2920      C2921   1.455       .  A
C2921      H3380   1.070       .  S
H2924      C3377   1.070       .  S
C2925      C2926   1.375       .  A
C2925      C2930   1.446       .  A
C2926      C2927   1.375       .  A
C2926      H2931   1.087       .  S
C2927      C3134   1.409       .  S
C2927      C2928   1.372       .  A
C2928      C2929   1.382       .  A
C2928      H2932   1.086       .  S
C2929      C2946   1.510       .  S
C2929      C2930   1.453       .  A
O2934     Cu2942   2.064   1_554  S
O2934      C2944   1.267       .  A
O2935      C2945   1.269       .  A
O2936      C2946   1.263       .  A
O2937     Cu3398   2.066       .  S
O2937      C2947   1.264       .  A
O2938     Cu2943   2.060       .  S
O2938      C2947   1.287       .  A
O2939      C2946   1.287       .  A
O2940      C2945   1.286       .  A
O2941     Cu3399   2.077       .  S
O2941      C2944   1.286       .  A
Cu2942     O3393   2.066       .  S
Cu2942    Cu3399   2.278   1_556  S
Cu2943     O3397   2.077       .  S
Cu2943    Cu3398   2.278       .  S
C2947      C3032   1.514       .  S
C2948      C2949   1.449       .  A
C2948      C2953   1.382       .  A
C2949      C2950   1.444       .  A
C2949      H3410   1.072       .  S
C2950      C2987   1.501       .  S
C2950      C2951   1.383       .  A
C2951      C2952   1.376       .  A
C2951      H2955   1.086       .  S
C2952      C3139   1.419       .  S
C2952      C2953   1.375       .  A
C2953      H2956   1.086       .  S
H2954      C3405   1.072       .  S
C2957      C2958   1.384       .  A
C2957      C2962   1.448       .  A
C2958      C2959   1.376       .  A
C2958      H2963   1.086       .  S
C2959      C3157   1.421       .  S
C2959      C2960   1.376       .  A
C2960      C2961   1.382       .  A
C2960      H2964   1.086       .  S
C2961      C2988   1.498       .  S
C2961      C2962   1.443       .  A
C2962      H3421   1.073       .  S
H2965      C3418   1.073       .  S
C2966      C2967   1.377       .  A
C2966      C2971   1.461       .  A
C2967      C2968   1.373       .  A
C2967      H2972   1.087       .  S
C2968      C3148   1.408       .  S
C2968      C2969   1.370       .  A
C2969      C2970   1.377       .  A
C2969      H2973   1.087       .  S
C2970      C2985   1.532       .  S
C2970      C2971   1.468       .  A
O2975     Cu2983   2.081   1_565  S
O2975      C2985   1.264       .  A
O2976      C2986   1.266       .  A
O2977     Cu3439   2.059   1_565  S
O2977      C2987   1.269       .  A
O2978      C2988   1.267       .  A
O2979      C2988   1.281       .  A
O2980     Cu3440   2.061   1_564  S
O2980      C2987   1.282       .  A
O2981      C2986   1.292       .  A
O2982     Cu2984   2.085   1_565  S
O2982      C2985   1.292       .  A
Cu2983     O3433   2.059   1_545  S
Cu2983    Cu2984   2.277       .  S
Cu2984     O3436   2.061   1_545  S
C2986      C3043   1.534       .  S
C2989      C2990   1.377       .  A
C2989      C2994   1.447       .  A
C2990      C2991   1.375       .  A
C2990      H2995   1.087       .  S
C2991      C3179   1.409       .  S
C2991      C2992   1.371       .  A
C2992      C2993   1.381       .  A
C2992      H2996   1.087       .  S
C2993      C3026   1.512       .  S
C2993      C2994   1.456       .  A
C2998      C3029   1.526       .  S
C2998      C2999   1.381       .  A
C2998      C3003   1.461       .  A
C2999      C3000   1.370       .  A
C2999      H3004   1.086       .  S
C3000      C3166   1.408       .  S
C3000      C3001   1.370       .  A
C3001      C3002   1.374       .  A
C3001      H3005   1.087       .  S
C3002      C3003   1.458       .  A
C3007      C3028   1.501       .  S
C3007      C3008   1.443       .  A
C3007      C3012   1.375       .  A
C3008      C3009   1.449       .  A
C3009      C3010   1.380       .  A
C3010      C3011   1.370       .  A
C3010      H3014   1.087       .  S
C3011      C3150   1.406       .  S
C3011      C3012   1.373       .  A
C3012      H3015   1.087       .  S
O3016     Cu3024   2.058       .  S
O3016      C3026   1.262       .  A
O3017      C3027   1.267       .  A
O3018      C3028   1.269       .  A
O3019      C3029   1.265       .  A
O3020      C3029   1.286       .  A
O3021      C3028   1.283       .  A
O3022      C3027   1.287       .  A
O3023     Cu3025   2.074       .  S
O3023      C3026   1.290       .  A
Cu3024    Cu3025   2.282       .  S
C3027      C3048   1.518       .  S
C3030      C3067   1.505       .  S
C3030      C3031   1.445       .  A
C3030      C3035   1.381       .  A
C3031      C3032   1.451       .  A
C3032      C3033   1.384       .  A
C3033      C3034   1.376       .  A
C3033      H3037   1.086       .  S
C3034      C3170   1.419       .  S
C3034      C3035   1.377       .  A
C3035      H3038   1.087       .  S
C3039      C3068   1.525       .  S
C3039      C3040   1.385       .  A
C3039      C3044   1.458       .  A
C3040      C3041   1.379       .  A
C3040      H3045   1.086       .  S
C3041      C3184   1.424       .  S
C3041      C3042   1.377       .  A
C3042      C3043   1.382       .  A
C3042      H3046   1.086       .  S
C3043      C3044   1.464       .  A
C3048      C3049   1.458       .  A
C3048      C3053   1.382       .  A
C3049      C3050   1.461       .  A
C3050      C3069   1.534       .  S
C3050      C3051   1.385       .  A
C3051      C3052   1.378       .  A
C3051      H3055   1.086       .  S
C3052      C3161   1.423       .  S
C3052      C3053   1.376       .  A
C3053      H3056   1.086       .  S
O3057     Cu3065   2.070       .  S
O3057      C3067   1.284       .  A
O3058     Cu3065   2.086       .  S
O3058      C3068   1.286       .  A
O3059     Cu3065   2.074       .  S
O3059      C3069   1.290       .  A
O3060     Cu3065   2.084       .  S
O3060      C3070   1.288       .  A
O3061     Cu3066   2.083       .  S
O3061      C3070   1.271       .  A
O3062     Cu3066   2.093       .  S
O3062      C3069   1.269       .  A
O3063     Cu3066   2.087       .  S
O3063      C3068   1.273       .  A
O3064     Cu3066   2.060       .  S
O3064      C3067   1.269       .  A
Cu3065    Cu3066   2.296       .  S
C3070      C3091   1.526       .  S
C3071      C3072   1.388       .  A
C3071      C3076   1.451       .  A
C3072      C3073   1.377       .  A
C3072      H3077   1.086       .  S
C3073      C3143   1.421       .  S
C3073      C3074   1.374       .  A
C3074      C3075   1.380       .  A
C3074      H3078   1.087       .  S
C3075      C3117   1.500       .  S
C3075      C3076   1.449       .  A
C3080      C3081   1.379       .  A
C3080      C3085   1.463       .  A
C3081      C3082   1.370       .  A
C3081      H3086   1.086       .  S
C3082      C3130   1.409       .  S
C3082      C3083   1.372       .  A
C3083      C3084   1.376       .  A
C3083      H3087   1.087       .  S
C3084      C3120   1.515       .  S
C3084      C3085   1.456       .  A
C3089      C3118   1.529       .  S
C3089      C3090   1.466       .  A
C3089      C3094   1.381       .  A
C3090      C3091   1.459       .  A
C3091      C3092   1.374       .  A
C3092      C3093   1.375       .  A
C3092      H3096   1.087       .  S
C3093      C3121   1.411       .  S
C3093      C3094   1.372       .  A
C3094      H3097   1.086       .  S
C3098      C3099   1.381       .  A
C3098      C3103   1.443       .  A
C3099      C3100   1.374       .  A
C3099      H3104   1.086       .  S
C3100      C3188   1.419       .  S
C3100      C3101   1.376       .  A
C3101      C3102   1.385       .  A
C3101      H3105   1.086       .  S
C3102      C3119   1.511       .  S
C3102      C3103   1.448       .  A
O3107      C3117   1.286       .  A
O3108     Cu3115   2.088   1_655  S
O3108      C3118   1.290       .  A
O3109      C3119   1.286       .  A
O3110      C3120   1.284       .  A
O3111     Cu3116   2.078   1_665  S
O3111      C3120   1.270       .  A
O3112      C3119   1.266       .  A
O3113      C3118   1.263       .  A
O3114      C3117   1.264       .  A
C3121      C3122   1.374       .  A
C3121      C3126   1.384       .  A
C3122      C3123   1.372       .  A
C3122      H3127   1.086       .  S
C3123      C3124   1.386       .  A
C3124      C3125   1.377       .  A
C3124      H3128   1.086       .  S
C3125      C3126   1.385       .  A
C3126      H3129   1.086       .  S
C3130      C3131   1.388       .  A
C3130      C3135   1.372       .  A
C3131      C3132   1.378       .  A
C3131      H3136   1.086       .  S
C3132      C3133   1.386       .  A
C3133      C3134   1.382       .  A
C3133      H3137   1.086       .  S
C3134      C3135   1.374       .  A
C3135      H3138   1.086       .  S
C3139      C3140   1.390       .  A
C3139      C3144   1.374       .  A
C3140      C3141   1.379       .  A
C3140      H3145   1.086       .  S
C3141      C3142   1.391       .  A
C3142      C3143   1.378       .  A
C3142      H3146   1.085       .  S
C3143      C3144   1.387       .  A
C3144      H3147   1.086       .  S
C3148      C3149   1.371       .  A
C3148      C3153   1.388       .  A
C3149      C3150   1.373       .  A
C3149      H3154   1.087       .  S
C3150      C3151   1.381       .  A
C3151      C3152   1.385       .  A
C3151      H3155   1.086       .  S
C3152      C3153   1.379       .  A
C3153      H3156   1.085       .  S
C3157      C3158   1.389       .  A
C3157      C3162   1.376       .  A
C3158      C3159   1.378       .  A
C3158      H3163   1.086       .  S
C3159      C3160   1.390       .  A
C3160      C3161   1.379       .  A
C3160      H3164   1.085       .  S
C3161      C3162   1.388       .  A
C3162      H3165   1.086       .  S
C3166      C3167   1.373       .  A
C3166      C3171   1.385       .  A
C3167      C3168   1.376       .  A
C3167      H3172   1.086       .  S
C3168      C3169   1.383       .  A
C3169      C3170   1.386       .  A
C3169      H3173   1.086       .  S
C3170      C3171   1.375       .  A
C3171      H3174   1.086       .  S
C3175      C3176   1.386       .  A
C3175      C3180   1.372       .  A
C3176      C3177   1.378       .  A
C3176      H3181   1.086       .  S
C3177      C3178   1.386       .  A
C3178      C3179   1.384       .  A
C3178      H3182   1.085       .  S
C3179      C3180   1.373       .  A
C3180      H3183   1.086       .  S
C3184      C3185   1.393       .  A
C3184      C3189   1.376       .  A
C3185      C3186   1.380       .  A
C3185      H3190   1.085       .  S
C3186      C3187   1.389       .  A
C3187      C3188   1.376       .  A
C3187      H3191   1.086       .  S
C3188      C3189   1.388       .  A
C3189      H3192   1.086       .  S
O3193     Cu3201   2.060       .  S
O3193      C3203   1.282       .  A
O3194     Cu3201   2.054       .  S
O3194      C3204   1.285       .  A
O3195     Cu3201   2.072       .  S
O3195      C3205   1.289       .  A
O3196     Cu3201   2.080       .  S
O3196      C3206   1.290       .  A
O3197     Cu3202   2.107       .  S
O3197      C3206   1.267       .  A
O3198     Cu3202   2.086       .  S
O3198      C3205   1.267       .  A
O3199     Cu3202   2.056       .  S
O3199      C3204   1.260       .  A
O3200     Cu3202   2.043       .  S
O3200      C3203   1.266       .  A
Cu3201    Cu3202   2.270       .  S
C3203      C3554   1.495       .  S
C3204      C3465   1.504       .  S
C3205      C3260   1.527       .  S
C3206      C3310   1.541       .  S
O3207     Cu3215   2.050       .  S
O3207      C3217   1.286       .  A
O3208     Cu3215   2.056       .  S
O3208      C3218   1.284       .  A
O3209     Cu3215   2.084       .  S
O3209      C3219   1.287       .  A
O3210     Cu3215   2.068       .  S
O3210      C3220   1.286       .  A
O3211     Cu3216   2.059       .  S
O3211      C3220   1.269       .  A
O3212     Cu3216   2.085       .  S
O3212      C3219   1.271       .  A
O3213     Cu3216   2.071       .  S
O3213      C3218   1.270       .  A
O3214     Cu3216   2.080       .  S
O3214      C3217   1.269       .  A
Cu3215    Cu3216   2.294       .  S
C3217      C3527   1.520       .  S
C3218      C3445   1.509       .  S
C3219      C3422   1.525       .  S
C3220      C3381   1.507       .  S
O3221     Cu3229   2.048       .  S
O3221      C3231   1.285       .  A
O3222     Cu3229   2.063       .  S
O3222      C3232   1.286       .  A
O3223     Cu3229   2.073       .  S
O3223      C3233   1.290       .  A
O3224     Cu3229   2.080       .  S
O3224      C3234   1.287       .  A
O3225     Cu3230   2.061       .  S
O3225      C3234   1.267       .  A
O3226     Cu3230   2.080       .  S
O3226      C3233   1.262       .  A
O3227     Cu3230   2.092       .  S
O3227      C3232   1.267       .  A
O3228     Cu3230   2.062       .  S
O3228      C3231   1.265       .  A
Cu3229    Cu3230   2.269       .  S
C3231      C3269   1.506       .  S
C3232      C3301   1.524       .  S
C3233      C3536   1.524       .  S
C3234      C3458   1.512       .  S
O3235     Cu3243   2.074       .  S
O3235      C3245   1.288       .  A
O3236     Cu3243   2.077       .  S
O3236      C3246   1.285       .  A
O3237     Cu3243   2.056       .  S
O3237      C3247   1.286       .  A
O3238     Cu3243   2.049       .  S
O3238      C3248   1.286       .  A
O3239     Cu3244   2.067       .  S
O3239      C3248   1.264       .  A
O3240     Cu3244   2.083       .  S
O3240      C3247   1.263       .  A
O3241     Cu3244   2.061       .  S
O3241      C3246   1.267       .  A
O3242     Cu3244   2.087       .  S
O3242      C3245   1.266       .  A
Cu3243    Cu3244   2.271       .  S
C3245      C3292   1.525       .  S
C3246      C3249   1.510       .  S
C3247      C3365   1.521       .  S
C3248      C3404   1.512       .  S
C3249      C3250   1.383       .  A
C3249      C3254   1.452       .  A
C3250      C3251   1.376       .  A
C3250      H3255   1.086       .  S
C3251      C3642   1.426       .  S
C3251      C3252   1.379       .  A
C3252      C3253   1.387       .  A
C3252      H3256   1.086       .  S
C3253      C3286   1.527       .  S
C3253      C3254   1.455       .  A
C3258      C3289   1.517       .  S
C3258      C3259   1.453       .  A
C3258      C3263   1.385       .  A
C3259      C3260   1.458       .  A
C3260      C3261   1.383       .  A
C3261      C3262   1.377       .  A
C3261      H3265   1.086       .  S
C3262      C3615   1.424       .  S
C3262      C3263   1.377       .  A
C3263      H3266   1.086       .  S
C3267      C3288   1.498       .  S
C3267      C3268   1.441       .  A
C3267      C3272   1.382       .  A
C3268      C3269   1.445       .  A
C3269      C3270   1.384       .  A
C3270      C3271   1.376       .  A
C3270      H3274   1.086       .  S
C3271      C3581   1.419       .  S
C3271      C3272   1.376       .  A
C3272      H3275   1.086       .  S
O3276      C3286   1.270       .  A
O3277     Cu3284   2.078   1_556  S
O3277      C3287   1.271       .  A
O3278      C3288   1.269       .  A
O3279      C3289   1.272       .  A
O3280      C3289   1.285       .  A
O3281      C3288   1.283       .  A
O3282     Cu3285   2.068   1_556  S
O3282      C3287   1.286       .  A
O3283      C3286   1.288       .  A
Cu3284    Cu3285   2.300       .  S
C3287      C3331   1.518       .  S
C3290      C3327   1.516       .  S
C3290      C3291   1.453       .  A
C3290      C3295   1.382       .  A
C3291      C3292   1.458       .  A
C3292      C3293   1.385       .  A
C3293      C3294   1.377       .  A
C3293      H3297   1.086       .  S
C3294      C3588   1.422       .  S
C3294      C3295   1.376       .  A
C3295      H3298   1.086       .  S
C3299      C3329   1.516       .  S
C3299      C3300   1.453       .  A
C3299      C3304   1.382       .  A
C3300      C3301   1.456       .  A
C3301      C3302   1.385       .  A
C3302      C3303   1.377       .  A
C3302      H3306   1.086       .  S
C3303      C3633   1.422       .  S
C3303      C3304   1.378       .  A
C3304      H3307   1.086       .  S
C3308      C3330   1.531       .  S
C3308      C3309   1.463       .  A
C3308      C3313   1.384       .  A
C3309      C3310   1.466       .  A
C3310      C3311   1.383       .  A
C3311      C3312   1.378       .  A
C3311      H3315   1.086       .  S
C3312      C3597   1.426       .  S
C3312      C3313   1.378       .  A
C3313      H3316   1.086       .  S
O3317      C3327   1.285       .  A
O3318      C3328   1.288       .  A
O3319     Cu3325   2.082       .  S
O3319      C3329   1.288       .  A
O3320      C3330   1.288       .  A
O3321      C3330   1.273       .  A
O3322      C3329   1.271       .  A
O3323      C3328   1.269       .  A
O3324     Cu3326   2.075       .  S
O3324      C3327   1.271       .  A
C3328      C3340   1.523       .  S
C3331      C3332   1.453       .  A
C3331      C3336   1.376       .  A
C3332      C3333   1.460       .  A
C3333      C3359   1.521       .  S
C3333      C3334   1.382       .  A
C3334      C3335   1.372       .  A
C3334      H3338   1.086       .  S
C3335      C3624   1.412       .  S
C3335      C3336   1.375       .  A
C3336      H3339   1.087       .  S
C3340      C3341   1.454       .  A
C3340      C3345   1.386       .  A
C3341      C3342   1.451       .  A
C3342      C3360   1.510       .  S
C3342      C3343   1.381       .  A
C3343      C3344   1.376       .  A
C3343      H3347   1.087       .  S
C3344      C3608   1.423       .  S
C3344      C3345   1.378       .  A
C3345      H3348   1.086       .  S
O3349     Cu3357   2.076       .  S
O3349      C3359   1.288       .  A
O3350     Cu3357   2.074       .  S
O3350      C3360   1.285       .  A
O3351     Cu3357   2.056       .  S
O3351      C3361   1.286       .  A
O3352     Cu3357   2.047       .  S
O3352      C3362   1.286       .  A
O3353     Cu3358   2.070       .  S
O3353      C3362   1.266       .  A
O3354     Cu3358   2.081       .  S
O3354      C3361   1.263       .  A
O3355     Cu3358   2.063       .  S
O3355      C3360   1.267       .  A
O3356     Cu3358   2.080       .  S
O3356      C3359   1.264       .  A
Cu3357    Cu3358   2.272       .  S
C3361      C3372   1.522       .  S
C3362      C3413   1.511       .  S
C3363      C3400   1.511       .  S
C3363      C3364   1.455       .  A
C3363      C3368   1.373       .  A
C3364      C3365   1.460       .  A
C3365      C3366   1.380       .  A
C3366      C3367   1.369       .  A
C3366      H3370   1.086       .  S
C3367      C3579   1.407       .  S
C3367      C3368   1.371       .  A
C3368      H3371   1.088       .  S
C3372      C3373   1.379       .  A
C3372      C3377   1.460       .  A
C3373      C3374   1.369       .  A
C3373      H3378   1.087       .  S
C3374      C3631   1.407       .  S
C3374      C3375   1.372       .  A
C3375      C3376   1.375       .  A
C3375      H3379   1.087       .  S
C3376      C3401   1.513       .  S
C3376      C3377   1.455       .  A
C3381      C3382   1.375       .  A
C3381      C3386   1.446       .  A
C3382      C3383   1.375       .  A
C3382      H3387   1.087       .  S
C3383      C3590   1.409       .  S
C3383      C3384   1.372       .  A
C3384      C3385   1.382       .  A
C3384      H3388   1.086       .  S
C3385      C3402   1.510       .  S
C3385      C3386   1.453       .  A
O3390     Cu3398   2.064       .  S
O3390      C3400   1.267       .  A
O3391      C3401   1.269       .  A
O3392      C3402   1.263       .  A
O3393      C3403   1.264       .  A
O3394     Cu3399   2.060   1_556  S
O3394      C3403   1.287       .  A
O3395      C3402   1.287       .  A
O3396      C3401   1.286       .  A
O3397      C3400   1.286       .  A
C3403      C3488   1.514       .  S
C3404      C3405   1.449       .  A
C3404      C3409   1.382       .  A
C3405      C3406   1.444       .  A
C3406      C3443   1.501       .  S
C3406      C3407   1.383       .  A
C3407      C3408   1.376       .  A
C3407      H3411   1.086       .  S
C3408      C3595   1.419       .  S
C3408      C3409   1.375       .  A
C3409      H3412   1.086       .  S
C3413      C3414   1.384       .  A
C3413      C3418   1.448       .  A
C3414      C3415   1.376       .  A
C3414      H3419   1.086       .  S
C3415      C3613   1.421       .  S
C3415      C3416   1.376       .  A
C3416      C3417   1.382       .  A
C3416      H3420   1.086       .  S
C3417      C3444   1.498       .  S
C3417      C3418   1.443       .  A
C3422      C3423   1.377       .  A
C3422      C3427   1.461       .  A
C3423      C3424   1.373       .  A
C3423      H3428   1.087       .  S
C3424      C3604   1.408       .  S
C3424      C3425   1.370       .  A
C3425      C3426   1.377       .  A
C3425      H3429   1.087       .  S
C3426      C3441   1.532       .  S
C3426      C3427   1.468       .  A
O3431     Cu3439   2.081   1_566  S
O3431      C3441   1.264       .  A
O3432      C3442   1.266       .  A
O3433      C3443   1.269       .  A
O3434      C3444   1.267       .  A
O3435      C3444   1.281       .  A
O3436      C3443   1.282       .  A
O3437      C3442   1.292       .  A
O3438     Cu3440   2.085   1_565  S
O3438      C3441   1.292       .  A
Cu3439    Cu3440   2.277   1_554  S
C3442      C3499   1.534       .  S
C3445      C3446   1.377       .  A
C3445      C3450   1.447       .  A
C3446      C3447   1.375       .  A
C3446      H3451   1.087       .  S
C3447      C3635   1.409       .  S
C3447      C3448   1.371       .  A
C3448      C3449   1.381       .  A
C3448      H3452   1.087       .  S
C3449      C3482   1.512       .  S
C3449      C3450   1.456       .  A
C3454      C3485   1.525       .  S
C3454      C3455   1.381       .  A
C3454      C3459   1.461       .  A
C3455      C3456   1.370       .  A
C3455      H3460   1.086       .  S
C3456      C3622   1.408       .  S
C3456      C3457   1.370       .  A
C3457      C3458   1.374       .  A
C3457      H3461   1.087       .  S
C3458      C3459   1.458       .  A
C3463      C3484   1.501       .  S
C3463      C3464   1.443       .  A
C3463      C3468   1.375       .  A
C3464      C3465   1.449       .  A
C3465      C3466   1.380       .  A
C3466      C3467   1.370       .  A
C3466      H3470   1.087       .  S
C3467      C3606   1.406       .  S
C3467      C3468   1.373       .  A
C3468      H3471   1.087       .  S
O3472     Cu3480   2.058       .  S
O3472      C3482   1.262       .  A
O3473      C3483   1.267       .  A
O3474      C3484   1.269       .  A
O3475      C3485   1.265       .  A
O3476      C3485   1.286       .  A
O3477      C3484   1.283       .  A
O3478      C3483   1.287       .  A
O3479     Cu3481   2.074       .  S
O3479      C3482   1.290       .  A
Cu3480    Cu3481   2.282       .  S
C3483      C3504   1.518       .  S
C3486      C3523   1.505       .  S
C3486      C3487   1.445       .  A
C3486      C3491   1.381       .  A
C3487      C3488   1.451       .  A
C3488      C3489   1.384       .  A
C3489      C3490   1.376       .  A
C3489      H3493   1.086       .  S
C3490      C3626   1.419       .  S
C3490      C3491   1.377       .  A
C3491      H3494   1.087       .  S
C3495      C3524   1.525       .  S
C3495      C3496   1.385       .  A
C3495      C3500   1.458       .  A
C3496      C3497   1.379       .  A
C3496      H3501   1.086       .  S
C3497      C3640   1.424       .  S
C3497      C3498   1.377       .  A
C3498      C3499   1.382       .  A
C3498      H3502   1.086       .  S
C3499      C3500   1.464       .  A
C3504      C3505   1.458       .  A
C3504      C3509   1.382       .  A
C3505      C3506   1.461       .  A
C3506      C3525   1.534       .  S
C3506      C3507   1.385       .  A
C3507      C3508   1.378       .  A
C3507      H3511   1.086       .  S
C3508      C3617   1.423       .  S
C3508      C3509   1.376       .  A
C3509      H3512   1.086       .  S
O3513     Cu3521   2.070       .  S
O3513      C3523   1.284       .  A
O3514     Cu3521   2.086       .  S
O3514      C3524   1.286       .  A
O3515     Cu3521   2.074       .  S
O3515      C3525   1.290       .  A
O3516     Cu3521   2.084       .  S
O3516      C3526   1.288       .  A
O3517     Cu3522   2.083       .  S
O3517      C3526   1.271       .  A
O3518     Cu3522   2.093       .  S
O3518      C3525   1.269       .  A
O3519     Cu3522   2.087       .  S
O3519      C3524   1.273       .  A
O3520     Cu3522   2.060       .  S
O3520      C3523   1.269       .  A
Cu3521    Cu3522   2.296       .  S
C3526      C3547   1.526       .  S
C3527      C3528   1.388       .  A
C3527      C3532   1.451       .  A
C3528      C3529   1.377       .  A
C3528      H3533   1.086       .  S
C3529      C3599   1.421       .  S
C3529      C3530   1.374       .  A
C3530      C3531   1.380       .  A
C3530      H3534   1.087       .  S
C3531      C3573   1.500       .  S
C3531      C3532   1.449       .  A
C3536      C3537   1.379       .  A
C3536      C3541   1.463       .  A
C3537      C3538   1.370       .  A
C3537      H3542   1.086       .  S
C3538      C3586   1.409       .  S
C3538      C3539   1.372       .  A
C3539      C3540   1.376       .  A
C3539      H3543   1.087       .  S
C3540      C3576   1.515       .  S
C3540      C3541   1.456       .  A
C3545      C3574   1.529       .  S
C3545      C3546   1.466       .  A
C3545      C3550   1.381       .  A
C3546      C3547   1.459       .  A
C3547      C3548   1.374       .  A
C3548      C3549   1.375       .  A
C3548      H3552   1.087       .  S
C3549      C3577   1.411       .  S
C3549      C3550   1.372       .  A
C3550      H3553   1.086       .  S
C3554      C3555   1.381       .  A
C3554      C3559   1.443       .  A
C3555      C3556   1.374       .  A
C3555      H3560   1.086       .  S
C3556      C3644   1.419       .  S
C3556      C3557   1.376       .  A
C3557      C3558   1.385       .  A
C3557      H3561   1.086       .  S
C3558      C3575   1.511       .  S
C3558      C3559   1.448       .  A
O3563      C3573   1.286       .  A
O3564     Cu3571   2.088   1_655  S
O3564      C3574   1.290       .  A
O3565      C3575   1.286       .  A
O3566      C3576   1.284       .  A
O3567     Cu3572   2.077   1_665  S
O3567      C3576   1.270       .  A
O3568      C3575   1.266       .  A
O3569      C3574   1.263       .  A
O3570      C3573   1.264       .  A
C3577      C3578   1.374       .  A
C3577      C3582   1.384       .  A
C3578      C3579   1.372       .  A
C3578      H3583   1.086       .  S
C3579      C3580   1.386       .  A
C3580      C3581   1.377       .  A
C3580      H3584   1.086       .  S
C3581      C3582   1.385       .  A
C3582      H3585   1.086       .  S
C3586      C3587   1.388       .  A
C3586      C3591   1.372       .  A
C3587      C3588   1.378       .  A
C3587      H3592   1.086       .  S
C3588      C3589   1.386       .  A
C3589      C3590   1.382       .  A
C3589      H3593   1.086       .  S
C3590      C3591   1.374       .  A
C3591      H3594   1.086       .  S
C3595      C3596   1.390       .  A
C3595      C3600   1.374       .  A
C3596      C3597   1.379       .  A
C3596      H3601   1.086       .  S
C3597      C3598   1.391       .  A
C3598      C3599   1.378       .  A
C3598      H3602   1.085       .  S
C3599      C3600   1.387       .  A
C3600      H3603   1.086       .  S
C3604      C3605   1.371       .  A
C3604      C3609   1.388       .  A
C3605      C3606   1.373       .  A
C3605      H3610   1.087       .  S
C3606      C3607   1.381       .  A
C3607      C3608   1.385       .  A
C3607      H3611   1.086       .  S
C3608      C3609   1.379       .  A
C3609      H3612   1.085       .  S
C3613      C3614   1.389       .  A
C3613      C3618   1.376       .  A
C3614      C3615   1.378       .  A
C3614      H3619   1.086       .  S
C3615      C3616   1.390       .  A
C3616      C3617   1.379       .  A
C3616      H3620   1.085       .  S
C3617      C3618   1.388       .  A
C3618      H3621   1.086       .  S
C3622      C3623   1.373       .  A
C3622      C3627   1.385       .  A
C3623      C3624   1.376       .  A
C3623      H3628   1.086       .  S
C3624      C3625   1.383       .  A
C3625      C3626   1.386       .  A
C3625      H3629   1.086       .  S
C3626      C3627   1.375       .  A
C3627      H3630   1.086       .  S
C3631      C3632   1.386       .  A
C3631      C3636   1.372       .  A
C3632      C3633   1.378       .  A
C3632      H3637   1.086       .  S
C3633      C3634   1.386       .  A
C3634      C3635   1.384       .  A
C3634      H3638   1.085       .  S
C3635      C3636   1.373       .  A
C3636      H3639   1.086       .  S
C3640      C3641   1.393       .  A
C3640      C3645   1.376       .  A
C3641      C3642   1.380       .  A
C3641      H3646   1.085       .  S
C3642      C3643   1.389       .  A
C3643      C3644   1.376       .  A
C3643      H3647   1.086       .  S
C3644      C3645   1.388       .  A
C3645      H3648   1.086       .  S
