geometry optimzed in LAMMPS
_audit_creation_date              2020-11-30 
_audit_creation_method            'lammps2cif' 
_symmetry_space_group_name_H-M    'P1' 
_symmetry_Int_Tables_number       1 
_symmetry_cell_setting            triclinic 
loop_ 
_symmetry_equiv_pos_as_xyz 
  x,y,z 
_cell_length_a                    45.09098583 
_cell_length_b                    33.27023168750793 
_cell_length_c                    33.72861401975216 
_cell_angle_alpha                 89.62263410956521 
_cell_angle_beta                  89.9469332398989 
_cell_angle_gamma                 90.0133084925767 
loop_ 
_atom_site_label 
_atom_site_type_symbol 
_atom_site_fract_x 
_atom_site_fract_y 
_atom_site_fract_z 
_atom_site_charge 
C1          C  0.00661055  0.97747751  0.04110300     0.02100
C2          C  0.03291592  0.99267376  0.02235716     0.02100
C3          C  0.03041122  0.02249285  0.99158463     0.02100
C4          C  0.50167710  0.03346572  0.97639100     0.02100
C5          C  0.47521581  0.01680009  0.99398263     0.02100
C6          C  0.47797829  0.98739916  0.02507192     0.02100
Fe7        Fe  0.46041901  0.25012816  0.66702288     1.65800
Fe8        Fe  0.03439829  0.24233000  0.66619577     1.73200
Fe9        Fe  0.49697789  0.24600222  0.58002167     1.54400
O10         O  0.46922924  0.19672409  0.57854407    -0.81800
O11         O  0.05727703  0.27606261  0.62378324    -0.80100
O12         O  0.43758867  0.21452507  0.62616627    -0.84300
O13         O  0.44963187  0.30205890  0.63707225    -0.79200
O14         O  0.03403118  0.20811312  0.57616926    -0.81000
O15         O  0.02663345  0.29423378  0.69725966    -0.83700
C16         C  0.44594851  0.30586601  0.60007518     0.97100
C17         C  0.44428299  0.19353970  0.59586048     1.04500
O18         O  0.99720593  0.24624537  0.63787865    -1.12700
O19         O  0.01684768  0.20864200  0.71248203    -0.75100
O20         O  0.46897523  0.19898683  0.69951566    -0.78600
O21         O  0.45998199  0.28382974  0.57564216    -0.79300
C22         C  0.99208131  0.19198208  0.71978991     0.96000
O23         O  0.47884320  0.28528620  0.71181247    -0.77300
O24         O  0.04364723  0.18967052  0.63778421    -0.82400
C25         C  0.04984816  0.29771087  0.59412704     0.98600
C26         C  0.04758396  0.18568103  0.60094667     1.04500
O27         O  0.02451354  0.29532707  0.57790949    -0.78100
C28         C  0.50391857  0.30167945  0.71821973     1.02800
C29         C  0.50464725  0.47860162  0.96303418     0.02100
C30         C  0.47622876  0.49128133  0.97851229     0.02100
C31         C  0.47460301  0.52368122  0.00675168     0.02100
C32         C  0.50152725  0.54101922  0.02150483     0.02100
C33         C  0.02955112  0.53005564  0.00449028     0.02100
C34         C  0.03153497  0.49721489  0.97724894     0.02100
Fe35       Fe  0.45950096  0.75441613  0.33436766     1.65800
Fe36       Fe  0.03336307  0.74719864  0.33808487     1.73200
Fe37       Fe  0.49302215  0.74101966  0.42280687     1.54400
O38         O  0.46879128  0.79339480  0.42909924    -0.81800
O39         O  0.05081835  0.70312247  0.37475657    -0.80100
O40         O  0.43737019  0.78572322  0.37885292    -0.84300
O41         O  0.44335856  0.70055161  0.35553744    -0.79200
O42         O  0.03195412  0.77329526  0.43333860    -0.81000
O43         O  0.01981042  0.70176392  0.30127232    -0.83700
C44         C  0.43920822  0.69094979  0.39159589     0.97100
C45         C  0.44461588  0.80169191  0.41162721     1.04900
O46         O  0.99547074  0.74782857  0.36537430    -1.12700
O47         O  0.02038556  0.79152368  0.29691634    -0.75100
O48         O  0.47425529  0.80855018  0.31226873    -0.78600
O49         O  0.45386375  0.70726223  0.41955933    -0.79300
C50         C  0.99802799  0.81470344  0.29301678     0.96000
O51         O  0.47561208  0.72426968  0.28430120    -0.77300
O52         O  0.05047918  0.79113011  0.37433842    -0.82400
C53         C  0.04159597  0.68170982  0.40353857     0.98600
C54         C  0.05093886  0.79185976  0.41204286     1.04500
O55         O  0.01725410  0.68832654  0.42135344    -0.78100
C56         C  0.49777595  0.70153670  0.27812273     1.02800
C57         C  0.24370210  0.02370932  0.53586351     0.02100
C58         C  0.21698391  0.00511198  0.52087324     0.02100
C59         C  0.21904747  0.97312166  0.49272193     0.02100
C60         C  0.24693300  0.96350864  0.47497405     0.02100
C61         C  0.27383103  0.98014885  0.49073645     0.02100
C62         C  0.27223881  0.01160241  0.52023804     0.02100
Fe63       Fe  0.21303288  0.74957276  0.16113954     1.65800
Fe64       Fe  0.28736525  0.74596401  0.16930272     1.73200
Fe65       Fe  0.25506811  0.75837783  0.07940289     1.54400
O66         O  0.21594164  0.72698893  0.06753981    -0.81800
O67         O  0.30520674  0.79786512  0.14653037    -0.80100
O68         O  0.19989902  0.70303876  0.12548628    -0.84300
O69         O  0.19526369  0.79030526  0.12069668    -0.79200
O70         O  0.27920850  0.70581718  0.07375064    -0.81000
O71         O  0.26957512  0.78085529  0.21542225    -0.83700
C72         C  0.20507372  0.81507239  0.09534781     0.97100
C73         C  0.19808192  0.70564545  0.08798191     1.04500
O74         O  0.25195686  0.75090509  0.13667732    -1.12700
O75         O  0.27283007  0.69379622  0.19581426    -0.75100
O76         O  0.22515269  0.70839375  0.20525322    -0.78600
O77         O  0.23131452  0.81169309  0.08157258    -0.79300
C78         C  0.24822901  0.68779392  0.21295865     0.96000
O79         O  0.22355641  0.79696419  0.19755439    -0.77300
O80         O  0.30909451  0.71085242  0.12645088    -0.82400
C81         C  0.30915234  0.80713127  0.11052361     0.98600
C82         C  0.30246071  0.69582037  0.09274775     1.04500
O83         O  0.29416504  0.79132649  0.08276755    -0.78100
C84         C  0.24577922  0.80114265  0.22022400     1.02800
C85         C  0.24185038  0.51201960  0.45322805     0.02100
C86         C  0.27107705  0.50201001  0.46866478     0.02100
C87         C  0.27385634  0.47660596  0.50287125     0.02100
C88         C  0.24750114  0.46405996  0.52330552     0.02100
C89         C  0.21899952  0.47964675  0.51134312     0.02100
C90         C  0.21705467  0.51002335  0.48039280     0.02100
Fe91       Fe  0.21584820  0.25673503  0.83672880     1.65800
Fe92       Fe  0.28997233  0.24986357  0.83514187     1.73200
Fe93       Fe  0.25380645  0.25494980  0.92280919     1.54400
O94         O  0.21695841  0.29403632  0.92677898    -0.81800
O95         O  0.30107730  0.19839665  0.86569003    -0.80100
O96         O  0.20592722  0.30952820  0.86481558    -0.84300
O97         O  0.19370687  0.22257370  0.87949094    -0.79200
O98         O  0.28164324  0.30380729  0.92322774    -0.81000
O99         O  0.27165363  0.21393939  0.79087083    -0.83700
C100        C  0.20107887  0.20219238  0.91005116     0.97100
C101        C  0.20286869  0.31549487  0.90154285     1.04500
O102        O  0.25324714  0.25381123  0.86477070    -1.12700
O103        O  0.28092820  0.30030954  0.80147518    -0.75100
O104        O  0.23278645  0.29053560  0.79013446    -0.78600
O105        O  0.22615254  0.20588564  0.92663771    -0.79300
C106        C  0.25748565  0.30679451  0.78161671     0.96000
O107        O  0.22390521  0.20487785  0.80539766    -0.77300
O108        O  0.31307074  0.28613027  0.87531685    -0.82400
C109        C  0.30459464  0.19405719  0.90267685     0.98600
C110        C  0.30641907  0.30711107  0.90563677     1.04500
O111        O  0.29070052  0.21632951  0.92711516    -0.78100
C112        C  0.24660728  0.19757417  0.78431557     1.02800
C113        C  0.25896554  0.33178398  0.74542721     0.01200
C114        C  0.24045775  0.36562307  0.74127129     0.04000
C115        C  0.23877717  0.38604033  0.70469733    -0.12100
C116        C  0.25631414  0.37347909  0.67234174     0.23300
C117        C  0.27443433  0.33904853  0.67633295    -0.12600
C118        C  0.27578853  0.31836873  0.71279019     0.04700
C119        C  0.25490728  0.39569312  0.63391353     0.27100
C120        C  0.24030588  0.37867830  0.60134191    -0.13300
C121        C  0.24017710  0.39865383  0.56437279     0.05200
C122        C  0.25062978  0.43894644  0.56091865    -0.09300
C123        C  0.26317807  0.45682837  0.59516754     0.06000
C124        C  0.26708251  0.43446638  0.63037129    -0.13600
Br125      Br  0.29569323  0.31800634  0.63120983    -0.05700
Br126      Br  0.21753443  0.38418415  0.78589468    -0.00100
Br127      Br  0.22579620  0.36861662  0.52022394     0.00400
Br128      Br  0.28790219  0.45782325  0.67467432    -0.04000
Br129      Br  0.29893883  0.26964925  0.71687042     0.00500
Br130      Br  0.21083317  0.42947953  0.69826643    -0.03300
Br131      Br  0.21895591  0.32862550  0.60838801    -0.04200
Br132      Br  0.26918807  0.51403581  0.59763248    -0.00200
C133        C  0.24689082  0.65731075  0.24482050     0.01200
C134        C  0.24210716  0.61652609  0.23603542     0.04000
C135        C  0.24017395  0.58794321  0.26697667    -0.12100
C136        C  0.24422490  0.59991784  0.30669609     0.23300
C137        C  0.24928504  0.64074841  0.31528120    -0.12600
C138        C  0.25070637  0.66931233  0.28446553     0.04700
C139        C  0.24152469  0.57028732  0.33968270     0.27100
C140        C  0.21370592  0.56276800  0.35712560    -0.13300
C141        C  0.21172529  0.53578471  0.38948000     0.05200
C142        C  0.23825180  0.52338732  0.40887758    -0.09300
C143        C  0.26170239  0.51774887  0.38210456     0.06000
C144        C  0.26533668  0.54500619  0.35038963    -0.13600
Br145      Br  0.25345136  0.65805909  0.36933926    -0.05700
Br146      Br  0.23844827  0.60005041  0.18159955    -0.00100
Br147      Br  0.17628608  0.50393081  0.39181201     0.00400
Br148      Br  0.30025925  0.54169334  0.31789059    -0.04000
Br149      Br  0.25846192  0.72495073  0.29665866     0.00500
Br150      Br  0.23056655  0.53280059  0.25523243    -0.03300
Br151      Br  0.17838997  0.58562994  0.33392504    -0.04200
Br152      Br  0.26839900  0.46257455  0.36900391    -0.00200
C153        C  0.24354380  0.82981985  0.25415417     0.01200
C154        C  0.26797861  0.85431155  0.26459375     0.04000
C155        C  0.26708324  0.87767028  0.29936277    -0.12100
C156        C  0.24143037  0.87824354  0.32320763     0.23300
C157        C  0.21591560  0.85767944  0.31049475    -0.12600
C158        C  0.21707648  0.83263417  0.27689323     0.04700
C159        C  0.24178749  0.89935782  0.36222852     0.27100
C160        C  0.25100637  0.87877759  0.39665186    -0.13300
C161        C  0.25292786  0.89894511  0.43336656     0.05200
C162        C  0.24656029  0.94063870  0.43601958    -0.09300
C163        C  0.23782119  0.96102126  0.40069337     0.06000
C164        C  0.23458960  0.94029232  0.36459650    -0.13600
Br165      Br  0.17907697  0.86522332  0.33850724    -0.05700
Br166      Br  0.30202867  0.85845942  0.23006664    -0.00100
Br167      Br  0.26458132  0.86819243  0.47877721     0.00400
Br168      Br  0.22056203  0.96801016  0.31777606    -0.04000
Br169      Br  0.18246319  0.80092068  0.26420782     0.00500
Br170      Br  0.30082065  0.90981026  0.31422458    -0.03300
Br171      Br  0.26109488  0.82245301  0.39292226    -0.04200
Br172      Br  0.23427980  0.01861410  0.39921541    -0.00200
C173        C  0.24133949  0.05150695  0.57193769     0.01200
C174        C  0.23174900  0.03516091  0.60893941     0.04000
C175        C  0.22919711  0.05937217  0.64308480    -0.12100
C176        C  0.23830191  0.09979472  0.64218596     0.23300
C177        C  0.24832299  0.11645484  0.60626717    -0.12600
C178        C  0.24889806  0.09326020  0.57124803     0.04700
C179        C  0.23948407  0.12404889  0.67950309     0.27100
C180        C  0.21971736  0.15642470  0.68565420    -0.13300
C181        C  0.22200859  0.18015296  0.72000641     0.05200
C182        C  0.24348051  0.17110522  0.74925993    -0.09300
C183        C  0.26345325  0.13917824  0.74291529     0.06000
C184        C  0.26184903  0.11635317  0.70789903    -0.13600
Br185      Br  0.26205517  0.17166429  0.60586119    -0.05700
Br186      Br  0.22691703  0.97810607  0.61586551    -0.00100
Br187      Br  0.19755732  0.22764533  0.72473550     0.00400
Br188      Br  0.29170450  0.07625591  0.69766183    -0.04000
Br189      Br  0.25956293  0.12172407  0.52401609     0.00500
Br190      Br  0.21412363  0.03680284  0.69205107    -0.03300
Br191      Br  0.19077236  0.17058008  0.64582885    -0.04200
Br192      Br  0.29296013  0.12630640  0.78239900    -0.00200
C193        C  0.06145144  0.64978832  0.41820248     0.01200
C194        C  0.07624106  0.65519298  0.45452467     0.04000
C195        C  0.09952169  0.62934948  0.46538212    -0.12100
C196        C  0.10867294  0.59850657  0.43952161     0.23300
C197        C  0.09267468  0.59159620  0.40428275    -0.12600
C198        C  0.06907502  0.61726892  0.39365405     0.04700
C199        C  0.13659607  0.57635967  0.44842866     0.27100
C200        C  0.16399970  0.59618740  0.44448931    -0.13300
C201        C  0.19036815  0.57748513  0.45808378     0.05200
C202        C  0.18954831  0.53820780  0.47603425    -0.09300
C203        C  0.16092514  0.52648124  0.48924566     0.06000
C204        C  0.13579891  0.53916173  0.46812984    -0.13600
Br205      Br  0.10357550  0.54803809  0.36993201    -0.05700
Br206      Br  0.06670254  0.70052974  0.48766430    -0.00100
Br207      Br  0.22573103  0.60841538  0.45194530     0.00400
Br208      Br  0.09885987  0.51145296  0.47602253    -0.04000
Br209      Br  0.04740536  0.60859618  0.34513966     0.00500
Br210      Br  0.12011656  0.63785345  0.51481870    -0.03300
Br211      Br  0.16504443  0.64881447  0.41941085    -0.04200
Br212      Br  0.15280011  0.53754500  0.54374269    -0.00200
C213        C  0.29734765  0.52787086  0.45684878     0.01200
C214        C  0.29831737  0.56797376  0.47107674     0.04000
C215        C  0.32106849  0.59442583  0.45905191    -0.12100
C216        C  0.34438076  0.58067740  0.43502604     0.23300
C217        C  0.34500620  0.54037547  0.42311340    -0.12600
C218        C  0.32214567  0.51376367  0.43452384     0.04700
C219        C  0.36903494  0.60817244  0.42357655     0.27100
C220        C  0.36576394  0.63395005  0.39073202    -0.13300
C221        C  0.38851789  0.66088593  0.38016025     0.05200
C222        C  0.41561707  0.66108305  0.40159354    -0.09300
C223        C  0.41930136  0.63367338  0.43360466     0.06000
C224        C  0.39588180  0.60791784  0.44491861    -0.13600
Br225      Br  0.37795056  0.52181321  0.39118972    -0.05700
Br226      Br  0.27368217  0.58386424  0.51549778    -0.00100
Br227      Br  0.38080119  0.69891746  0.33774619     0.00400
Br228      Br  0.40051166  0.57184025  0.48959596    -0.04000
Br229      Br  0.32840613  0.45827388  0.42190662     0.00500
Br230      Br  0.32117431  0.64938225  0.47698250    -0.03300
Br231      Br  0.32987252  0.63200935  0.35995204    -0.04200
Br232      Br  0.45677747  0.62925852  0.46107561    -0.00200
C233        C  0.42312615  0.82922840  0.43065465     0.01200
C234        C  0.43021491  0.86986227  0.43773589     0.04000
C235        C  0.40884768  0.89584082  0.45432898    -0.12100
C236        C  0.37956239  0.88222632  0.46070660     0.23300
C237        C  0.37264663  0.84150470  0.45379279    -0.12600
C238        C  0.39457372  0.81489997  0.44027167     0.04700
C239        C  0.35524076  0.91124449  0.46983076     0.27100
C240        C  0.34156372  0.91149414  0.50722123    -0.13300
C241        C  0.31515910  0.93344597  0.51322979     0.05200
C242        C  0.30319574  0.95869241  0.48297878    -0.09300
C243        C  0.31838324  0.95957427  0.44577334     0.06000
C244        C  0.34376623  0.93558427  0.43935224    -0.13600
Br245      Br  0.33270999  0.82216197  0.46045859    -0.05700
Br246      Br  0.46789567  0.89104999  0.42072708    -0.00100
Br247      Br  0.29305199  0.92192614  0.56067039     0.00400
Br248      Br  0.36261957  0.93440517  0.38765779    -0.04000
Br249      Br  0.38536979  0.75847360  0.43546326     0.00500
Br250      Br  0.41919374  0.95052032  0.46700880    -0.03300
Br251      Br  0.35863615  0.88007962  0.54982623    -0.04200
Br252      Br  0.30567790  0.99103060  0.40128713    -0.00200
C253        C  0.07581696  0.81308302  0.43162014     0.01200
C254        C  0.07074851  0.84392428  0.45933422     0.04000
C255        C  0.09479333  0.86647060  0.47400385    -0.12100
C256        C  0.12395147  0.85801386  0.46132692     0.23300
C257        C  0.12927463  0.82413239  0.43756052    -0.12600
C258        C  0.10528407  0.80182270  0.42262434     0.04700
C259        C  0.14829249  0.88706094  0.46953777     0.27100
C260        C  0.14943547  0.92342126  0.44810568    -0.13300
C261        C  0.17078759  0.95285040  0.45728977     0.05200
C262        C  0.19333377  0.94475242  0.48555050    -0.09300
C263        C  0.19231306  0.90736896  0.50633759     0.06000
C264        C  0.16940134  0.87942763  0.49921541    -0.13600
Br265      Br  0.16942259  0.80815787  0.42564857    -0.05700
Br266      Br  0.03105667  0.85629334  0.47639812    -0.00100
Br267      Br  0.16630707  0.00449207  0.43271646     0.00400
Br268      Br  0.16585172  0.83138687  0.53140158    -0.04000
Br269      Br  0.11298416  0.75460871  0.39123612     0.00500
Br270      Br  0.08802086  0.90951986  0.51103007    -0.03300
Br271      Br  0.12142562  0.93258404  0.40554147    -0.04200
Br272      Br  0.21914211  0.89633613  0.54956606    -0.00200
C273        C  0.18136030  0.34751022  0.91465717     0.01200
C274        C  0.18371717  0.36606340  0.95247606     0.04000
C275        C  0.16221742  0.39428696  0.96495585    -0.12100
C276        C  0.13843764  0.40478628  0.93995609     0.23300
C277        C  0.13705576  0.38889661  0.90157474    -0.12600
C278        C  0.15762362  0.35971952  0.88919287     0.04700
C279        C  0.11374481  0.43097687  0.95400474     0.27100
C280        C  0.09100412  0.41466236  0.97751438    -0.13300
C281        C  0.06603170  0.43797925  0.98729445     0.05200
C282        C  0.06124309  0.47640562  0.96972938    -0.09300
C283        C  0.08502874  0.49294574  0.94665073     0.06000
C284        C  0.11144756  0.47086392  0.94060135    -0.13600
Br285      Br  0.10663590  0.40797033  0.86563052    -0.05700
Br286      Br  0.21640499  0.35451458  0.98777019    -0.00100
Br287      Br  0.04132489  0.41890341  0.02988268     0.00400
Br288      Br  0.14479269  0.49427355  0.91245090    -0.04000
Br289      Br  0.15051939  0.33563615  0.83788094     0.00500
Br290      Br  0.16542137  0.41974494  0.01607335    -0.03300
Br291      Br  0.09382550  0.35962217  0.99572035    -0.04200
Br292      Br  0.08363197  0.54441716  0.92109639    -0.00200
C293        C  0.44837808  0.46688753  0.97056198     0.01200
C294        C  0.43347900  0.46683559  0.93334001     0.04000
C295        C  0.40833331  0.44230417  0.92729391    -0.12100
C296        C  0.39710638  0.41818010  0.95821761     0.23300
C297        C  0.41052345  0.41963418  0.99570382    -0.12600
C298        C  0.43661398  0.44221892  0.00138686     0.04700
C299        C  0.37291503  0.38875871  0.94988737     0.27100
C300        C  0.34329118  0.40166594  0.94622309    -0.13300
C301        C  0.32135662  0.37514639  0.93200437     0.05200
C302        C  0.32891617  0.33518518  0.92193465    -0.09300
C303        C  0.35813675  0.32147759  0.92884229     0.06000
C304        C  0.37995488  0.34816700  0.94267917    -0.13600
Br305      Br  0.39327113  0.38965991  0.03914914    -0.05700
Br306      Br  0.44663956  0.49821089  0.88891815    -0.00100
Br307      Br  0.28141126  0.39459199  0.92469996     0.00400
Br308      Br  0.41948278  0.32870220  0.95239553    -0.04000
Br309      Br  0.45891637  0.43200741  0.04906202     0.00500
Br310      Br  0.38901379  0.44109384  0.87605244    -0.03300
Br311      Br  0.33302360  0.45580241  0.96096022    -0.04200
Br312      Br  0.36826992  0.26550202  0.92152902    -0.00200
C313        C  0.05549182  0.55802182  0.01089331     0.01200
C314        C  0.05569743  0.59585374  0.99094563     0.04000
C315        C  0.07777631  0.62461616  0.99898199    -0.12100
C316        C  0.10050043  0.61562536  0.02596896     0.23300
C317        C  0.10134333  0.57781712  0.04472315    -0.12600
C318        C  0.07933624  0.54893149  0.03695819     0.04700
C319        C  0.12412164  0.64518980  0.03496544     0.27100
C320        C  0.15260440  0.64049424  0.01842245    -0.13300
C321        C  0.17702318  0.66067613  0.03507673     0.05200
C322        C  0.17276938  0.68608202  0.06796850    -0.09300
C323        C  0.14360437  0.69445433  0.08104405     0.06000
C324        C  0.11937783  0.67398791  0.06456839    -0.13600
Br325      Br  0.13298366  0.56604825  0.08190139    -0.05700
Br326      Br  0.02909654  0.60641322  0.94729808    -0.00100
Br327      Br  0.21617437  0.65164083  0.01400662     0.00400
Br328      Br  0.07960293  0.68526001  0.08242420    -0.04000
Br329      Br  0.08447332  0.49717369  0.06112724     0.00500
Br330      Br  0.07732101  0.67635782  0.97269250    -0.03300
Br331      Br  0.15785288  0.60563399  0.97347380    -0.04200
Br332      Br  0.13632737  0.73512247  0.12044992    -0.00200
C333        C  0.44479941  0.54411753  0.01505116     0.01200
C334        C  0.43201920  0.56907472  0.98512222     0.04000
C335        C  0.40477436  0.58915112  0.99135768    -0.12100
C336        C  0.39056093  0.58703772  0.02838468     0.23300
C337        C  0.40243433  0.56222477  0.05813068    -0.12600
C338        C  0.42924429  0.54118829  0.05196272     0.04700
C339        C  0.36645408  0.61592457  0.03905782     0.27100
C340        C  0.37418372  0.65545603  0.04955949    -0.13300
C341        C  0.35290748  0.68150829  0.06558267     0.05200
C342        C  0.32390278  0.66792971  0.07363972    -0.09300
C343        C  0.31577454  0.62863415  0.06221071     0.06000
C344        C  0.33679976  0.60312842  0.04392334    -0.13600
Br345      Br  0.38195687  0.55877985  0.10866095    -0.05700
Br346      Br  0.45375565  0.58237000  0.93771151    -0.00100
Br347      Br  0.36354386  0.73662931  0.07447374     0.00400
Br348      Br  0.32542788  0.55036829  0.02626339    -0.04000
Br349      Br  0.44351985  0.51200360  0.09706004     0.00500
Br350      Br  0.38716338  0.62134728  0.94974823    -0.03300
Br351      Br  0.41437218  0.67397089  0.04349722    -0.04200
Br352      Br  0.27669506  0.60863756  0.07420178    -0.00200
C353        C  0.50138993  0.56491288  0.05976629     0.01200
C354        C  0.50852377  0.54495030  0.09592443     0.04000
C355        C  0.50681841  0.56508796  0.13250330    -0.12100
C356        C  0.49974403  0.60611448  0.13368228     0.23300
C357        C  0.99365740  0.62681566  0.09815519    -0.12600
C358        C  0.99386433  0.60636216  0.06155780     0.04700
C359        C  0.49925436  0.62785276  0.17224119     0.27100
C360        C  0.47220658  0.63609799  0.19138450    -0.13300
C361        C  0.47167717  0.65881906  0.22657907     0.05200
C362        C  0.49838252  0.67469450  0.24249582    -0.09300
C363        C  0.02569464  0.66477635  0.22367548     0.06000
C364        C  0.02597470  0.64081355  0.18935888    -0.13600
Br365      Br  0.98513014  0.68376044  0.10021382    -0.05700
Br366      Br  0.51652975  0.48821021  0.09722822    -0.00100
Br367      Br  0.43414576  0.66556499  0.25346447     0.00400
Br368      Br  0.06317537  0.62489874  0.16571553    -0.04000
Br369      Br  0.98341496  0.63666357  0.01535718     0.00500
Br370      Br  0.51255894  0.53607558  0.18172796    -0.03300
Br371      Br  0.43584518  0.61522977  0.16951101    -0.04200
Br372      Br  0.06338911  0.68490153  0.24247865    -0.00200
C373        C  0.07216166  0.32552813  0.57742996     0.01200
C374        C  0.09955148  0.31022794  0.56416227     0.04000
C375        C  0.12205187  0.33660458  0.55155361    -0.12100
C376        C  0.11728538  0.37854925  0.55177056     0.23300
C377        C  0.08927343  0.39366354  0.56297096    -0.12600
C378        C  0.06676833  0.36722798  0.57584821     0.04700
C379        C  0.14201018  0.40655070  0.54159338     0.27100
C380        C  0.15728179  0.42692549  0.57182400    -0.13300
C381        C  0.18099342  0.45301757  0.56245226     0.05200
C382        C  0.19164594  0.45599339  0.52278937    -0.09300
C383        C  0.17717759  0.43303914  0.49317982     0.06000
C384        C  0.15127752  0.41119689  0.50204946    -0.13600
Br385      Br  0.08185097  0.45064618  0.56117833    -0.05700
Br386      Br  0.10597730  0.25282924  0.56178477    -0.00100
Br387      Br  0.19631017  0.48637385  0.60423570     0.00400
Br388      Br  0.12880257  0.38666869  0.45998077    -0.04000
Br389      Br  0.02906440  0.38830993  0.59308038     0.00500
Br390      Br  0.15940751  0.31473739  0.53433174    -0.03300
Br391      Br  0.14583889  0.41835370  0.62644254    -0.04200
Br392      Br  0.19605553  0.42359123  0.44271249    -0.00200
C393        C  0.42361320  0.33546812  0.58503677     0.01200
C394        C  0.39813144  0.34494166  0.60809741     0.04000
C395        C  0.37683222  0.37196017  0.59331492    -0.12100
C396        C  0.37822117  0.38537898  0.55380449     0.23300
C397        C  0.40357090  0.37702976  0.53095146    -0.12600
C398        C  0.42677637  0.35361579  0.54705191     0.04700
C399        C  0.35343520  0.40981470  0.53728451     0.27100
C400        C  0.33052652  0.39160261  0.51567043    -0.13300
C401        C  0.30634299  0.41466713  0.50192701     0.05200
C402        C  0.30315734  0.45569069  0.51267599    -0.09300
C403        C  0.32754248  0.47406742  0.53290431     0.06000
C404        C  0.35255926  0.45121586  0.54418373    -0.13600
Br405      Br  0.40686857  0.39952327  0.47825744    -0.05700
Br406      Br  0.38991042  0.31929619  0.65865035    -0.00100
Br407      Br  0.28073598  0.39153489  0.46233313     0.00400
Br408      Br  0.38633154  0.47607215  0.56989560    -0.04000
Br409      Br  0.46343467  0.34934651  0.51765788     0.00500
Br410      Br  0.34693360  0.39341771  0.62817104    -0.03300
Br411      Br  0.33258428  0.33482737  0.50465839    -0.04200
Br412      Br  0.32983711  0.52984659  0.54575007    -0.00200
C413        C  0.42140037  0.16587701  0.57954322     0.01200
C414        C  0.42826105  0.12582900  0.56883595     0.04000
C415        C  0.40553662  0.09957402  0.55615515    -0.12100
C416        C  0.37590149  0.11296417  0.55425678     0.23300
C417        C  0.36946936  0.15347222  0.56258361    -0.12600
C418        C  0.39203448  0.17988606  0.57460607     0.04700
C419        C  0.35122497  0.08446398  0.54493119     0.27100
C420        C  0.33820064  0.08428264  0.50715143    -0.13300
C421        C  0.31254487  0.06114009  0.49984869     0.05200
C422        C  0.30017718  0.03567937  0.52967062    -0.09300
C423        C  0.31412723  0.03563383  0.56766605     0.06000
C424        C  0.33920736  0.06003535  0.57503358    -0.13600
Br425      Br  0.32959323  0.17314834  0.55731223    -0.05700
Br426      Br  0.46841025  0.10611740  0.57244404    -0.00100
Br427      Br  0.29160572  0.07143446  0.45114239     0.00400
Br428      Br  0.35715105  0.06127206  0.62715657    -0.04000
Br429      Br  0.38267719  0.23613702  0.58143728     0.00500
Br430      Br  0.41470968  0.04509459  0.54130704    -0.03300
Br431      Br  0.35501635  0.11769847  0.46582175    -0.04200
Br432      Br  0.29982387  0.00439078  0.61157147    -0.00200
C433        C  0.18746196  0.02603410  0.52778144     0.01200
C434        C  0.18354983  0.06488722  0.51088653     0.04000
C435        C  0.15959296  0.08929617  0.52196567    -0.12100
C436        C  0.13676991  0.07341692  0.54554913     0.23300
C437        C  0.13776767  0.03305848  0.55754484    -0.12600
C438        C  0.16336151  0.00980573  0.55043593     0.04700
C439        C  0.11268607  0.09986817  0.55999196     0.27100
C440        C  0.11369518  0.11386755  0.59912176    -0.13300
C441        C  0.09322872  0.14273491  0.61209996     0.05200
C442        C  0.06947255  0.15511517  0.58692914    -0.09300
C443        C  0.06752654  0.13851224  0.54824702     0.06000
C444        C  0.08938944  0.11155938  0.53480100    -0.13600
Br445      Br  0.10384512  0.01071152  0.58539750    -0.05700
Br446      Br  0.20825934  0.08357602  0.46816489    -0.00100
Br447      Br  0.10067416  0.16685184  0.66331452     0.00400
Br448      Br  0.08726581  0.08938883  0.48207524    -0.04000
Br449      Br  0.16291116  0.95721999  0.57369050     0.00500
Br450      Br  0.15842502  0.14507707  0.50563176    -0.03300
Br451      Br  0.14290909  0.09215747  0.63542346    -0.04200
Br452      Br  0.03501086  0.15106399  0.51294831    -0.00200
C453        C  0.50702894  0.32853180  0.75283554     0.01200
C454        C  0.48697761  0.36047717  0.75862238     0.04000
C455        C  0.48856793  0.38385876  0.79319130    -0.12100
C456        C  0.51056525  0.37605757  0.82200183     0.23300
C457        C  0.03027997  0.34352831  0.81662216    -0.12600
C458        C  0.02860324  0.31999318  0.78212258     0.04700
C459        C  0.51140195  0.40067033  0.85884635     0.27100
C460        C  0.02061636  0.44099415  0.85739768    -0.13300
C461        C  0.01640224  0.46617775  0.89041332     0.05200
C462        C  0.50672141  0.45037056  0.92753542    -0.09300
C463        C  0.49937115  0.40860022  0.92900648     0.06000
C464        C  0.50021574  0.38486233  0.89446893    -0.13600
Br465      Br  0.05809439  0.32885356  0.85775347    -0.05700
Br466      Br  0.45745254  0.37273754  0.71894824    -0.00100
Br467      Br  0.01896054  0.52327248  0.88152225     0.00400
Br468      Br  0.48515304  0.33028131  0.89512065    -0.04000
Br469      Br  0.05447718  0.27394856  0.77686030     0.00500
Br470      Br  0.45925012  0.42505409  0.80231582    -0.03300
Br471      Br  0.03830004  0.46193187  0.80933279    -0.04200
Br472      Br  0.48878829  0.38071861  0.97653026    -0.00200
C473        C  0.32628027  0.16290051  0.91733242     0.01200
C474        C  0.35010625  0.14994116  0.89258923     0.04000
C475        C  0.37053949  0.12104880  0.90636760    -0.12100
C476        C  0.36950290  0.10737465  0.94584839     0.23300
C477        C  0.34552868  0.11854248  0.97010458    -0.12600
C478        C  0.32386106  0.14581951  0.95602975     0.04700
C479        C  0.39426337  0.08223104  0.96186815     0.27100
C480        C  0.39642671  0.04146669  0.95201945    -0.13300
C481        C  0.42191596  0.01899517  0.96246936     0.05200
C482        C  0.44538578  0.03684336  0.98494042    -0.09300
C483        C  0.44080851  0.07672769  0.99852976     0.06000
C484        C  0.41620136  0.09957338  0.98586531    -0.13600
Br485      Br  0.34197655  0.09458136  0.02220345    -0.05700
Br486      Br  0.35759057  0.17308173  0.84063168    -0.00100
Br487      Br  0.42203452  0.96462164  0.94449078     0.00400
Br488      Br  0.41256961  0.15521985  0.00117672    -0.04000
Br489      Br  0.29086782  0.15812464  0.99049438     0.00500
Br490      Br  0.39932821  0.09834348  0.87039204    -0.03300
Br491      Br  0.36389293  0.01696939  0.92336049    -0.04200
Br492      Br  0.46637102  0.09970986  0.03805053    -0.00200
C493        C  0.17880374  0.17462609  0.92749005     0.01200
C494        C  0.18532157  0.13371020  0.93491095     0.04000
C495        C  0.16272084  0.10746473  0.94802880    -0.12100
C496        C  0.13348062  0.12172407  0.95245637     0.23300
C497        C  0.12749083  0.16302697  0.94733629    -0.12600
C498        C  0.15022373  0.18949882  0.93593356     0.04700
C499        C  0.10893102  0.09362041  0.96261695     0.27100
C500        C  0.09600959  0.06957585  0.93317999    -0.13300
C501        C  0.07162689  0.04452500  0.94237070     0.05200
C502        C  0.05794448  0.04627346  0.98038865    -0.09300
C503        C  0.07066635  0.07232043  0.00897467     0.06000
C504        C  0.09704889  0.09331927  0.00099453    -0.13600
Br505      Br  0.08814415  0.18374921  0.95601506    -0.05700
Br506      Br  0.22474308  0.11312329  0.92607413    -0.00100
Br507      Br  0.05831795  0.00906418  0.90158983     0.00400
Br508      Br  0.11652433  0.12331269  0.04235913    -0.04000
Br509      Br  0.14263093  0.24671193  0.93475754     0.00500
Br510      Br  0.17161079  0.05211731  0.96069068    -0.03300
Br511      Br  0.11142345  0.07222143  0.87967608    -0.04200
Br512      Br  0.04933793  0.08726994  0.05595023    -0.00200
C513        C  0.99888688  0.05745583  0.93814985     0.01200
C514        C  0.48823296  0.03788584  0.90363535     0.04000
C515        C  0.48315495  0.05961610  0.86835360    -0.12100
C516        C  0.99335473  0.09937212  0.86471927     0.23300
C517        C  0.00704241  0.11780956  0.89714448    -0.12600
C518        C  0.00744104  0.09852270  0.93435762     0.04700
C519        C  0.99128904  0.12131784  0.82635147     0.27100
C520        C  0.01015273  0.11064061  0.79471499    -0.13300
C521        C  0.00937451  0.13257744  0.75898577     0.05200
C522        C  0.99002034  0.16556649  0.75484826    -0.09300
C523        C  0.47130897  0.17650802  0.78653783     0.06000
C524        C  0.47222893  0.15482082  0.82239614    -0.13600
Br525      Br  0.02633776  0.16934315  0.88969427    -0.05700
Br526      Br  0.48591484  0.98019139  0.90116387    -0.00100
Br527      Br  0.03493448  0.11745979  0.71566658     0.00400
Br528      Br  0.44961456  0.17396154  0.86720082    -0.04000
Br529      Br  0.01831019  0.13140876  0.97814040     0.00500
Br530      Br  0.46317331  0.03442605  0.82436481    -0.03300
Br531      Br  0.03890682  0.06810762  0.80144013    -0.04200
Br532      Br  0.44615611  0.22341244  0.78229427    -0.00200
C533        C  0.45183838  0.96142507  0.03639083     0.01200
C534        C  0.42918861  0.97441699  0.06264153     0.04000
C535        C  0.40550333  0.94874726  0.07263516    -0.12100
C536        C  0.40384768  0.91005287  0.05645327     0.23300
C537        C  0.42532956  0.89723989  0.02929393    -0.12600
C538        C  0.44932689  0.92247231  0.01958658     0.04700
C539        C  0.37972464  0.88270201  0.06913918     0.27100
C540        C  0.38534613  0.85353485  0.09858347    -0.13300
C541        C  0.36180469  0.83153527  0.11528489     0.05200
C542        C  0.33279769  0.83606040  0.09982745    -0.09300
C543        C  0.32726056  0.86570299  0.07065618     0.06000
C544        C  0.35072092  0.88845192  0.05482265    -0.13600
Br545      Br  0.42077562  0.84559835  0.00401123    -0.05700
Br546      Br  0.42871242  0.02684124  0.08544135    -0.00100
Br547      Br  0.37004220  0.79576369  0.15938614     0.00400
Br548      Br  0.34334184  0.92689234  0.01282403    -0.04000
Br549      Br  0.47568537  0.90504155  0.97819456     0.00500
Br550      Br  0.37466454  0.96656931  0.10851755    -0.03300
Br551      Br  0.42566276  0.84187528  0.11409286    -0.04200
Br552      Br  0.28713099  0.87834869  0.05551891    -0.00200
C553        C  0.18471357  0.84770458  0.08078768     0.01200
C554        C  0.15951011  0.85818678  0.10407040     0.04000
C555        C  0.13708722  0.88247530  0.08791056    -0.12100
C556        C  0.14139609  0.90265601  0.05154558     0.23300
C557        C  0.16768181  0.89586793  0.02995021    -0.12600
C558        C  0.18816824  0.86644109  0.04304942     0.04700
C559        C  0.11799916  0.93116323  0.03748740     0.27100
C560        C  0.09854781  0.92055242  0.00674607    -0.13300
C561        C  0.07209855  0.94251695  0.00072121     0.05200
C562        C  0.06273057  0.97204275  0.02844046    -0.09300
C563        C  0.08265604  0.98160118  0.05973019     0.06000
C564        C  0.11125506  0.96464376  0.06089619    -0.13600
Br565      Br  0.17560084  0.92710338  0.98267333    -0.05700
Br566      Br  0.15545883  0.84234096  0.15920383    -0.00100
Br567      Br  0.04736170  0.92746570  0.95688998     0.00400
Br568      Br  0.14086424  0.98457447  0.09731751    -0.04000
Br569      Br  0.21900798  0.85043493  0.00661409     0.00500
Br570      Br  0.09956300  0.88674865  0.11543376    -0.03300
Br571      Br  0.10708397  0.87405826  0.97461591    -0.04200
Br572      Br  0.07110728  0.00989706  0.10642675    -0.00200
C573        C  0.99919940  0.84870018  0.26366355     0.01200
C574        C  0.47323621  0.86148162  0.24308989     0.04000
C575        C  0.47539150  0.88970624  0.21191377    -0.12100
C576        C  0.00328950  0.90294627  0.19878746     0.23300
C577        C  0.02862866  0.89396136  0.22141981    -0.12600
C578        C  0.02662959  0.86750959  0.25418145     0.04700
C579        C  0.00605570  0.92236290  0.15903404     0.27100
C580        C  0.01151915  0.89843209  0.12561455    -0.13300
C581        C  0.01363382  0.91597125  0.08748853     0.05200
C582        C  0.00811033  0.95767938  0.08177692    -0.09300
C583        C  0.50269148  0.98134093  0.11606788     0.06000
C584        C  0.50229114  0.96390215  0.15429157    -0.13600
Br585      Br  0.06586609  0.91894617  0.20776610    -0.05700
Br586      Br  0.43448258  0.83889442  0.25386880    -0.00100
Br587      Br  0.02559382  0.88149264  0.04520332     0.00400
Br588      Br  0.49666727  0.99671226  0.20074064    -0.04000
Br589      Br  0.06154679  0.85863256  0.28628716     0.00500
Br590      Br  0.44017068  0.91132854  0.18722503    -0.03300
Br591      Br  0.01534002  0.84084150  0.13245647    -0.04200
Br592      Br  0.49842407  0.03868315  0.11241106    -0.00200
C593        C  0.50661049  0.97747724  0.04110292     0.02100
C594        C  0.53291588  0.99267345  0.02235710     0.02100
C595        C  0.53041124  0.02249258  0.99158462     0.02100
C596        C  0.00167704  0.03346591  0.97639104     0.02100
C597        C  0.97521579  0.01680024  0.99398273     0.02100
C598        C  0.97797834  0.98739931  0.02507201     0.02100
Fe599      Fe  0.96041915  0.25012820  0.66702287     1.65800
Fe600      Fe  0.53439816  0.24233008  0.66619594     1.73200
Fe601      Fe  0.99697791  0.24600232  0.58002163     1.54400
O602        O  0.96922933  0.19672415  0.57854408    -0.81800
O603        O  0.55727697  0.27606263  0.62378346    -0.80100
O604        O  0.93758874  0.21452522  0.62616622    -0.84300
O605        O  0.94963207  0.30205902  0.63707234    -0.79200
O606        O  0.53403113  0.20811295  0.57616947    -0.81000
O607        O  0.52663325  0.29423389  0.69725977    -0.83700
C608        C  0.94594858  0.30586609  0.60007535     0.97100
C609        C  0.94428308  0.19353979  0.59586048     1.04500
O610        O  0.49720584  0.24624537  0.63787870    -1.12700
O611        O  0.51684758  0.20864207  0.71248215    -0.75100
O612        O  0.96897532  0.19898684  0.69951557    -0.78600
O613        O  0.95998196  0.28382972  0.57564225    -0.79300
C614        C  0.49208120  0.19198206  0.71978996     0.96000
O615        O  0.97884342  0.28528612  0.71181247    -0.77300
O616        O  0.54364718  0.18967058  0.63778448    -0.82400
C617        C  0.54984819  0.29771076  0.59412713     0.98600
C618        C  0.54758395  0.18568099  0.60094699     1.04500
O619        O  0.52451361  0.29532691  0.57790947    -0.78100
C620        C  0.00391878  0.30167932  0.71821969     1.02800
C621        C  0.00464728  0.47860134  0.96303414     0.02100
C622        C  0.97622877  0.49128118  0.97851208     0.02100
C623        C  0.97460294  0.52368118  0.00675134     0.02100
C624        C  0.00152716  0.54101921  0.02150453     0.02100
C625        C  0.52955116  0.53005581  0.00449038     0.02100
C626        C  0.53153495  0.49721517  0.97724892     0.02100
Fe627      Fe  0.95950078  0.75441643  0.33436742     1.65800
Fe628      Fe  0.53336327  0.74719860  0.33808538     1.73200
Fe629      Fe  0.99302212  0.74101983  0.42280653     1.54400
O630        O  0.96879129  0.79339500  0.42909895    -0.81800
O631        O  0.55081852  0.70312247  0.37475715    -0.80100
O632        O  0.93737012  0.78572350  0.37885273    -0.84300
O633        O  0.94335836  0.70055192  0.35553717    -0.79200
O634        O  0.53195416  0.77329509  0.43333907    -0.81000
O635        O  0.51981075  0.70176380  0.30127282    -0.83700
C636        C  0.93920815  0.69094999  0.39159569     0.97100
C637        C  0.94461590  0.80169221  0.41162699     1.04900
O638        O  0.49547088  0.74782844  0.36537466    -1.12700
O639        O  0.52038577  0.79152355  0.29691674    -0.75100
O640        O  0.97425516  0.80855048  0.31226857    -0.78600
O641        O  0.95386372  0.70726237  0.41955905    -0.79300
C642        C  0.49802808  0.81470319  0.29301700     0.96000
O643        O  0.97561178  0.72427005  0.28430085    -0.77300
O644        O  0.55047925  0.79113013  0.37433898    -0.82400
C645        C  0.54159604  0.68170971  0.40353900     0.98600
C646        C  0.55093891  0.79185967  0.41204345     1.04500
O647        O  0.51725411  0.68832637  0.42135376    -0.78100
C648        C  0.99777548  0.70153709  0.27812220     1.02800
C649        C  0.74370229  0.02370926  0.53586397     0.02100
C650        C  0.71698405  0.00511193  0.52087386     0.02100
C651        C  0.71904750  0.97312166  0.49272248     0.02100
C652        C  0.74693296  0.96350864  0.47497443     0.02100
C653        C  0.77383104  0.98014885  0.49073666     0.02100
C654        C  0.77223893  0.01160238  0.52023832     0.02100
Fe655      Fe  0.71303290  0.74957286  0.16113969     1.65800
Fe656      Fe  0.78736526  0.74596390  0.16930311     1.73200
Fe657      Fe  0.75506826  0.75837794  0.07940316     1.54400
O658        O  0.71594181  0.72698902  0.06753995    -0.81800
O659        O  0.80520693  0.79786495  0.14653081    -0.80100
O660        O  0.69989908  0.70303887  0.12548638    -0.84300
O661        O  0.69526381  0.79030537  0.12069672    -0.79200
O662        O  0.77920869  0.70581731  0.07375089    -0.81000
O663        O  0.76957515  0.78085525  0.21542258    -0.83700
C664        C  0.70507368  0.81507236  0.09534804     0.97100
C665        C  0.69808204  0.70564556  0.08798199     1.04500
O666        O  0.75195693  0.75090513  0.13667758    -1.12700
O667        O  0.77282993  0.69379617  0.19581465    -0.75100
O668        O  0.72515257  0.70839387  0.20525346    -0.78600
O669        O  0.73131471  0.81169320  0.08157276    -0.79300
C670        C  0.74822883  0.68779397  0.21295900     0.96000
O671        O  0.72355648  0.79696429  0.19755460    -0.77300
O672        O  0.80909453  0.71085223  0.12645133    -0.82400
C673        C  0.80915252  0.80713125  0.11052411     0.98600
C674        C  0.80246080  0.69582034  0.09274810     1.04500
O675        O  0.79416519  0.79132662  0.08276797    -0.78100
C676        C  0.74577907  0.80114271  0.22022422     1.02800
C677        C  0.74185041  0.51201968  0.45322849     0.02100
C678        C  0.77107711  0.50201019  0.46866519     0.02100
C679        C  0.77385645  0.47660617  0.50287170     0.02100
C680        C  0.74750128  0.46406012  0.52330600     0.02100
C681        C  0.71899963  0.47964679  0.51134361     0.02100
C682        C  0.71705472  0.51002336  0.48039327     0.02100
Fe683      Fe  0.71584798  0.25673508  0.83672924     1.65800
Fe684      Fe  0.78997209  0.24986361  0.83514229     1.73200
Fe685      Fe  0.75380629  0.25494986  0.92280963     1.54400
O686        O  0.71695822  0.29403633  0.92677945    -0.81800
O687        O  0.80107703  0.19839666  0.86569038    -0.80100
O688        O  0.70592704  0.30952822  0.86481606    -0.84300
O689        O  0.69370670  0.22257372  0.87949140    -0.79200
O690        O  0.78164306  0.30380737  0.92322814    -0.81000
O691        O  0.77165337  0.21393948  0.79087123    -0.83700
C692        C  0.70107878  0.20219239  0.91005166     0.97100
C693        C  0.70286849  0.31549485  0.90154334     1.04500
O694        O  0.75324693  0.25381127  0.86477113    -1.12700
O695        O  0.78092796  0.30030962  0.80147568    -0.75100
O696        O  0.73278621  0.29053572  0.79013491    -0.78600
O697        O  0.72615242  0.20588569  0.92663815    -0.79300
C698        C  0.75748538  0.30679467  0.78161721     0.96000
O699        O  0.72390495  0.20487792  0.80539803    -0.77300
O700        O  0.81307051  0.28613029  0.87531722    -0.82400
C701        C  0.80459444  0.19405729  0.90267738     0.98600
C702        C  0.80641887  0.30711113  0.90563717     1.04500
O703        O  0.79070040  0.21632957  0.92711555    -0.78100
C704        C  0.74660707  0.19757425  0.78431595     1.02800
C705        C  0.75896533  0.33178428  0.74542782     0.01200
C706        C  0.74045746  0.36562331  0.74127191     0.04000
C707        C  0.73877699  0.38604072  0.70469801    -0.12100
C708        C  0.75631412  0.37347969  0.67234250     0.23300
C709        C  0.77443443  0.33904926  0.67633373    -0.12600
C710        C  0.77578853  0.31836931  0.71279089     0.04700
C711        C  0.75490725  0.39569367  0.63391427     0.27100
C712        C  0.74030596  0.37867870  0.60134265    -0.13300
C713        C  0.74017728  0.39865407  0.56437345     0.05200
C714        C  0.75062996  0.43894669  0.56091920    -0.09300
C715        C  0.76317819  0.45682874  0.59516807     0.06000
C716        C  0.76708251  0.43446690  0.63037194    -0.13600
Br717      Br  0.79569362  0.31800745  0.63121069    -0.05700
Br718      Br  0.71753391  0.38418411  0.78589521    -0.00100
Br719      Br  0.72579657  0.36861658  0.52022468     0.00400
Br720      Br  0.78790212  0.45782388  0.67467496    -0.04000
Br721      Br  0.79893901  0.26964999  0.71687108     0.00500
Br722      Br  0.71083291  0.42947982  0.69826707    -0.03300
Br723      Br  0.71895608  0.32862585  0.60838886    -0.04200
Br724      Br  0.76918825  0.51403617  0.59763278    -0.00200
C725        C  0.74689051  0.65731082  0.24482088     0.01200
C726        C  0.74210681  0.61652616  0.23603580     0.04000
C727        C  0.74017360  0.58794327  0.26697705    -0.12100
C728        C  0.74422450  0.59991791  0.30669648     0.23300
C729        C  0.74928463  0.64074847  0.31528160    -0.12600
C730        C  0.75070598  0.66931240  0.28446593     0.04700
C731        C  0.74152441  0.57028736  0.33968309     0.27100
C732        C  0.71370567  0.56276783  0.35712603    -0.13300
C733        C  0.71172518  0.53578454  0.38948047     0.05200
C734        C  0.73825177  0.52338737  0.40887801    -0.09300
C735        C  0.76170235  0.51774907  0.38210494     0.06000
C736        C  0.76533652  0.54500645  0.35039003    -0.13600
Br737      Br  0.75345104  0.65805909  0.36933966    -0.05700
Br738      Br  0.73844784  0.60005051  0.18159992    -0.00100
Br739      Br  0.67628608  0.50393043  0.39181265     0.00400
Br740      Br  0.80025906  0.54169385  0.31789091    -0.04000
Br741      Br  0.75846144  0.72495081  0.29665911     0.00500
Br742      Br  0.73056642  0.53280059  0.25523278    -0.03300
Br743      Br  0.67838961  0.58562948  0.33392553    -0.04200
Br744      Br  0.76839898  0.46257482  0.36900402    -0.00200
C745        C  0.74354379  0.82981982  0.25415450     0.01200
C746        C  0.76797843  0.85431161  0.26459413     0.04000
C747        C  0.76708300  0.87767036  0.29936315    -0.12100
C748        C  0.74143012  0.87824337  0.32320806     0.23300
C749        C  0.71591545  0.85767912  0.31049515    -0.12600
C750        C  0.71707635  0.83263394  0.27689355     0.04700
C751        C  0.74178720  0.89935764  0.36222897     0.27100
C752        C  0.75100624  0.87877750  0.39665228    -0.13300
C753        C  0.75292776  0.89894506  0.43336696     0.05200
C754        C  0.74656010  0.94063863  0.43601998    -0.09300
C755        C  0.73782082  0.96102110  0.40069381     0.06000
C756        C  0.73458919  0.94029210  0.36459696    -0.13600
Br757      Br  0.67907678  0.86522267  0.33850768    -0.05700
Br758      Br  0.80202852  0.85845968  0.23006706    -0.00100
Br759      Br  0.76458138  0.86819247  0.47877760     0.00400
Br760      Br  0.72056150  0.96800986  0.31777653    -0.04000
Br761      Br  0.68246315  0.80092043  0.26420792     0.00500
Br762      Br  0.80082019  0.90981077  0.31422485    -0.03300
Br763      Br  0.76109501  0.82245301  0.39292264    -0.04200
Br764      Br  0.73427932  0.01861393  0.39921580    -0.00200
C765        C  0.74133976  0.05150692  0.57193815     0.01200
C766        C  0.73174921  0.03516092  0.60893986     0.04000
C767        C  0.72919727  0.05937221  0.64308521    -0.12100
C768        C  0.73830207  0.09979476  0.64218635     0.23300
C769        C  0.74832330  0.11645481  0.60626761    -0.12600
C770        C  0.74889841  0.09326014  0.57124848     0.04700
C771        C  0.73948413  0.12404896  0.67950346     0.27100
C772        C  0.71971736  0.15642472  0.68565448    -0.13300
C773        C  0.72200845  0.18015294  0.72000674     0.05200
C774        C  0.74348031  0.17110527  0.74926032    -0.09300
C775        C  0.76345316  0.13917837  0.74291573     0.06000
C776        C  0.76184905  0.11635333  0.70789945    -0.13600
Br777      Br  0.76205565  0.17166417  0.60586173    -0.05700
Br778      Br  0.72691726  0.97810608  0.61586603    -0.00100
Br779      Br  0.69755706  0.22764521  0.72473578     0.00400
Br780      Br  0.79170467  0.07625625  0.69766223    -0.04000
Br781      Br  0.75956340  0.12172398  0.52401657     0.00500
Br782      Br  0.71412375  0.03680292  0.69205148    -0.03300
Br783      Br  0.69077252  0.17058011  0.64582891    -0.04200
Br784      Br  0.79296002  0.12630664  0.78239948    -0.00200
C785        C  0.56145144  0.64978817  0.41820294     0.01200
C786        C  0.57624101  0.65519278  0.45452516     0.04000
C787        C  0.59952161  0.62934926  0.46538265    -0.12100
C788        C  0.60867290  0.59850639  0.43952211     0.23300
C789        C  0.59267464  0.59159600  0.40428325    -0.12600
C790        C  0.56907499  0.61726873  0.39365453     0.04700
C791        C  0.63659604  0.57635952  0.44842915     0.27100
C792        C  0.66399965  0.59618729  0.44448983    -0.13300
C793        C  0.69036811  0.57748505  0.45808428     0.05200
C794        C  0.68954831  0.53820772  0.47603473    -0.09300
C795        C  0.66092514  0.52648107  0.48924610     0.06000
C796        C  0.63579890  0.53916157  0.46813031    -0.13600
Br797      Br  0.60357541  0.54803781  0.36993258    -0.05700
Br798      Br  0.56670243  0.70052949  0.48766483    -0.00100
Br799      Br  0.72573096  0.60841536  0.45194584     0.00400
Br800      Br  0.59885983  0.51145287  0.47602306    -0.04000
Br801      Br  0.54740529  0.60859592  0.34514019     0.00500
Br802      Br  0.62011637  0.63785310  0.51481932    -0.03300
Br803      Br  0.66504434  0.64881439  0.41941143    -0.04200
Br804      Br  0.65280006  0.53754471  0.54374314    -0.00200
C805        C  0.79734769  0.52787103  0.45684910     0.01200
C806        C  0.79831748  0.56797394  0.47107706     0.04000
C807        C  0.82106866  0.59442594  0.45905224    -0.12100
C808        C  0.84438086  0.58067748  0.43502627     0.23300
C809        C  0.84500623  0.54037554  0.42311362    -0.12600
C810        C  0.82214568  0.51376380  0.43452411     0.04700
C811        C  0.86903502  0.60817250  0.42357662     0.27100
C812        C  0.86576387  0.63395019  0.39073216    -0.13300
C813        C  0.88851780  0.66088605  0.38016025     0.05200
C814        C  0.91561704  0.66108316  0.40159332    -0.09300
C815        C  0.91930151  0.63367337  0.43360434     0.06000
C816        C  0.89588200  0.60791781  0.44491841    -0.13600
Br817      Br  0.87795054  0.52181319  0.39118991    -0.05700
Br818      Br  0.77368233  0.58386449  0.51549811    -0.00100
Br819      Br  0.88080096  0.69891756  0.33774621     0.00400
Br820      Br  0.90051209  0.57184008  0.48959561    -0.04000
Br821      Br  0.82840604  0.45827400  0.42190689     0.00500
Br822      Br  0.82117468  0.64938229  0.47698303    -0.03300
Br823      Br  0.82987230  0.63200960  0.35995250    -0.04200
Br824      Br  0.95677779  0.62925838  0.46107485    -0.00200
C825        C  0.92312625  0.82922879  0.43065440     0.01200
C826        C  0.93021502  0.86986271  0.43773536     0.04000
C827        C  0.90884782  0.89584136  0.45432839    -0.12100
C828        C  0.87956254  0.88222689  0.46070614     0.23300
C829        C  0.87264675  0.84150525  0.45379246    -0.12600
C830        C  0.89457384  0.81490043  0.44027153     0.04700
C831        C  0.85524094  0.91124503  0.46983047     0.27100
C832        C  0.84156400  0.91149456  0.50722101    -0.13300
C833        C  0.81515930  0.93344616  0.51322971     0.05200
C834        C  0.80319574  0.95869250  0.48297877    -0.09300
C835        C  0.81838312  0.95957447  0.44577323     0.06000
C836        C  0.84376624  0.93558475  0.43935202    -0.13600
Br837      Br  0.83271007  0.82216264  0.46045807    -0.05700
Br838      Br  0.96789575  0.89105033  0.42072627    -0.00100
Br839      Br  0.79305237  0.92192616  0.56067043     0.00400
Br840      Br  0.86261952  0.93440596  0.38765753    -0.04000
Br841      Br  0.88536991  0.75847401  0.43546351     0.00500
Br842      Br  0.91919392  0.95052092  0.46700793    -0.03300
Br843      Br  0.85863672  0.88008019  0.54982592    -0.04200
Br844      Br  0.80567740  0.99103049  0.40128701    -0.00200
C845        C  0.57581699  0.81308292  0.43162082     0.01200
C846        C  0.57074849  0.84392423  0.45933483     0.04000
C847        C  0.59479330  0.86647062  0.47400444    -0.12100
C848        C  0.62395146  0.85801383  0.46132765     0.23300
C849        C  0.62927466  0.82413228  0.43756138    -0.12600
C850        C  0.60528412  0.80182255  0.42262518     0.04700
C851        C  0.64829248  0.88706094  0.46953849     0.27100
C852        C  0.64943545  0.92342125  0.44810638    -0.13300
C853        C  0.67078752  0.95285045  0.45729052     0.05200
C854        C  0.69333375  0.94475246  0.48555118    -0.09300
C855        C  0.69231310  0.90736899  0.50633824     0.06000
C856        C  0.66940136  0.87942765  0.49921611    -0.13600
Br857      Br  0.66942264  0.80815775  0.42564957    -0.05700
Br858      Br  0.53105664  0.85629317  0.47639874    -0.00100
Br859      Br  0.66630678  0.00449223  0.43271749     0.00400
Br860      Br  0.66585184  0.83138685  0.53140225    -0.04000
Br861      Br  0.61298425  0.75460840  0.39123723     0.00500
Br862      Br  0.58802074  0.90952009  0.51103041    -0.03300
Br863      Br  0.62142573  0.93258389  0.40554200    -0.04200
Br864      Br  0.71914226  0.89633616  0.54956659    -0.00200
C865        C  0.68136008  0.34751019  0.91465760     0.01200
C866        C  0.68371697  0.36606354  0.95247641     0.04000
C867        C  0.66221732  0.39428731  0.96495599    -0.12100
C868        C  0.63843761  0.40478663  0.93995614     0.23300
C869        C  0.63705567  0.38889672  0.90157489    -0.12600
C870        C  0.65762340  0.35971936  0.88919327     0.04700
C871        C  0.61374477  0.43097723  0.95400468     0.27100
C872        C  0.59100409  0.41466269  0.97751430    -0.13300
C873        C  0.56603166  0.43797955  0.98729434     0.05200
C874        C  0.56124306  0.47640592  0.96972930    -0.09300
C875        C  0.58502870  0.49294609  0.94665068     0.06000
C876        C  0.61144751  0.47086426  0.94060124    -0.13600
Br877      Br  0.60663591  0.40797043  0.86563052    -0.05700
Br878      Br  0.71640461  0.35451452  0.98777077    -0.00100
Br879      Br  0.54132482  0.41890363  0.02988249     0.00400
Br880      Br  0.64479259  0.49427384  0.91245064    -0.04000
Br881      Br  0.65051887  0.33563529  0.83788173     0.00500
Br882      Br  0.66542129  0.41974556  0.01607336    -0.03300
Br883      Br  0.59382548  0.35962251  0.99572030    -0.04200
Br884      Br  0.58363199  0.54441764  0.92109655    -0.00200
C885        C  0.94837812  0.46688732  0.97056185     0.01200
C886        C  0.93347895  0.46683541  0.93333996     0.04000
C887        C  0.90833318  0.44230411  0.92729402    -0.12100
C888        C  0.89710637  0.41817997  0.95821775     0.23300
C889        C  0.91052362  0.41963390  0.99570385    -0.12600
C890        C  0.93661415  0.44221867  0.00138677     0.04700
C891        C  0.87291501  0.38875860  0.94988759     0.27100
C892        C  0.84329112  0.40166577  0.94622383    -0.13300
C893        C  0.82135650  0.37514629  0.93200515     0.05200
C894        C  0.82891604  0.33518517  0.92193498    -0.09300
C895        C  0.85813670  0.32147764  0.92884211     0.06000
C896        C  0.87995488  0.34816699  0.94267895    -0.13600
Br897      Br  0.89327156  0.38965936  0.03914916    -0.05700
Br898      Br  0.94663953  0.49821050  0.88891797    -0.00100
Br899      Br  0.78141107  0.39459189  0.92470139     0.00400
Br900      Br  0.91948288  0.32870225  0.95239470    -0.04000
Br901      Br  0.95891668  0.43200724  0.04906184     0.00500
Br902      Br  0.88901339  0.44109403  0.87605273    -0.03300
Br903      Br  0.83302357  0.45580206  0.96096163    -0.04200
Br904      Br  0.86826999  0.26550220  0.92152815    -0.00200
C905        C  0.55549186  0.55802201  0.01089338     0.01200
C906        C  0.55569741  0.59585399  0.99094580     0.04000
C907        C  0.57777630  0.62461640  0.99898212    -0.12100
C908        C  0.60050058  0.61562547  0.02596882     0.23300
C909        C  0.60134359  0.57781714  0.04472281    -0.12600
C910        C  0.57933639  0.54893160  0.03695806     0.04700
C911        C  0.62412175  0.64518996  0.03496538     0.27100
C912        C  0.65260447  0.64049470  0.01842218    -0.13300
C913        C  0.67702325  0.66067655  0.03507652     0.05200
C914        C  0.67276948  0.68608217  0.06796851    -0.09300
C915        C  0.64360448  0.69445425  0.08104423     0.06000
C916        C  0.61937795  0.67398779  0.06456859    -0.13600
Br917      Br  0.63298423  0.56604802  0.08190050    -0.05700
Br918      Br  0.52909643  0.60641357  0.94729839    -0.00100
Br919      Br  0.71617440  0.65164154  0.01400613     0.00400
Br920      Br  0.57960308  0.68525940  0.08242483    -0.04000
Br921      Br  0.58447337  0.49717384  0.06112722     0.00500
Br922      Br  0.57732080  0.67635823  0.97269295    -0.03300
Br923      Br  0.65785288  0.60563489  0.97347318    -0.04200
Br924      Br  0.63632744  0.73512219  0.12045030    -0.00200
C925        C  0.94479930  0.54411743  0.01505080     0.01200
C926        C  0.93201906  0.56907467  0.98512191     0.04000
C927        C  0.90477425  0.58915113  0.99135746    -0.12100
C928        C  0.89056081  0.58703763  0.02838446     0.23300
C929        C  0.90243422  0.56222460  0.05813038    -0.12600
C930        C  0.92924418  0.54118812  0.05196236     0.04700
C931        C  0.86645403  0.61592454  0.03905777     0.27100
C932        C  0.87418382  0.65545579  0.04955998    -0.13300
C933        C  0.85290769  0.68150803  0.06558343     0.05200
C934        C  0.82390287  0.66792964  0.07364008    -0.09300
C935        C  0.81577449  0.62863428  0.06221057     0.06000
C936        C  0.83679965  0.60312858  0.04392304    -0.13600
Br937      Br  0.88195680  0.55877967  0.10866068    -0.05700
Br938      Br  0.95375544  0.58236985  0.93771111    -0.00100
Br939      Br  0.86354440  0.73662875  0.07447548     0.00400
Br940      Br  0.82542759  0.55036874  0.02626252    -0.04000
Br941      Br  0.94351972  0.51200334  0.09705962     0.00500
Br942      Br  0.88716332  0.62134758  0.94974818    -0.03300
Br943      Br  0.91437238  0.67397036  0.04349804    -0.04200
Br944      Br  0.77669488  0.60863789  0.07420121    -0.00200
C945        C  0.00138973  0.56491309  0.05976586     0.01200
C946        C  0.00852346  0.54495069  0.09592414     0.04000
C947        C  0.00681786  0.56508847  0.13250292    -0.12100
C948        C  0.99974346  0.60611500  0.13368169     0.23300
C949        C  0.49365775  0.62681527  0.09815591    -0.12600
C950        C  0.49386456  0.60636194  0.06155845     0.04700
C951        C  0.99925378  0.62785345  0.17224049     0.27100
C952        C  0.97220603  0.63609867  0.19138387    -0.13300
C953        C  0.97167665  0.65881961  0.22657852     0.05200
C954        C  0.99838209  0.67469508  0.24249517    -0.09300
C955        C  0.52569519  0.66477548  0.22367638     0.06000
C956        C  0.52597526  0.64081274  0.18935972    -0.13600
Br957      Br  0.48513023  0.68375997  0.10021483    -0.05700
Br958      Br  0.01652973  0.48821067  0.09722821    -0.00100
Br959      Br  0.93414534  0.66556534  0.25346417     0.00400
Br960      Br  0.56317596  0.62489789  0.16571644    -0.04000
Br961      Br  0.48341503  0.63666350  0.01535799     0.00500
Br962      Br  0.01255816  0.53607633  0.18172776    -0.03300
Br963      Br  0.93584457  0.61523063  0.16951037    -0.04200
Br964      Br  0.56338969  0.68490002  0.24248002    -0.00200
C965        C  0.57216176  0.32552795  0.57743009     0.01200
C966        C  0.59955163  0.31022771  0.56416266     0.04000
C967        C  0.62205210  0.33660431  0.55155415    -0.12100
C968        C  0.61728561  0.37854899  0.55177089     0.23300
C969        C  0.58927362  0.39366331  0.56297109    -0.12600
C970        C  0.56676847  0.36722781  0.57584827     0.04700
C971        C  0.64201044  0.40655040  0.54159375     0.27100
C972        C  0.65728193  0.42692536  0.57182438    -0.13300
C973        C  0.68099354  0.45301748  0.56245269     0.05200
C974        C  0.69164613  0.45599329  0.52278982    -0.09300
C975        C  0.67717794  0.43303886  0.49318027     0.06000
C976        C  0.65127793  0.41119644  0.50204986    -0.13600
Br977      Br  0.58185118  0.45064594  0.56117834    -0.05700
Br978      Br  0.60597746  0.25282900  0.56178537    -0.00100
Br979      Br  0.69631023  0.48637380  0.60423614     0.00400
Br980      Br  0.62880330  0.38666777  0.45998114    -0.04000
Br981      Br  0.52906455  0.38830983  0.59308036     0.00500
Br982      Br  0.65940788  0.31473706  0.53433287    -0.03300
Br983      Br  0.64583886  0.41835373  0.62644289    -0.04200
Br984      Br  0.69605605  0.42359098  0.44271305    -0.00200
C985        C  0.92361328  0.33546822  0.58503696     0.01200
C986        C  0.89813174  0.34494217  0.60809792     0.04000
C987        C  0.87683250  0.37196069  0.59331548    -0.12100
C988        C  0.87822119  0.38537912  0.55380493     0.23300
C989        C  0.90357067  0.37702945  0.53095156    -0.12600
C990        C  0.92677617  0.35361545  0.54705187     0.04700
C991        C  0.85343520  0.40981483  0.53728504     0.27100
C992        C  0.83052646  0.39160273  0.51567109    -0.13300
C993        C  0.80634302  0.41466732  0.50192752     0.05200
C994        C  0.80315745  0.45569091  0.51267639    -0.09300
C995        C  0.82754262  0.47406763  0.53290464     0.06000
C996        C  0.85255937  0.45121603  0.54418408    -0.13600
Br997      Br  0.90686795  0.39952240  0.47825727    -0.05700
Br998      Br  0.88991100  0.31929726  0.65865121    -0.00100
Br999      Br  0.78073606  0.39153509  0.46233357     0.00400
Br1000     Br  0.88633175  0.47607229  0.56989575    -0.04000
Br1001     Br  0.96343411  0.34934542  0.51765712     0.00500
Br1002     Br  0.84693414  0.39341864  0.62817179    -0.03300
Br1003     Br  0.83258397  0.33482739  0.50465950    -0.04200
Br1004     Br  0.82983736  0.52984683  0.54575024    -0.00200
C1005       C  0.92140049  0.16587708  0.57954324     0.01200
C1006       C  0.92826118  0.12582902  0.56883621     0.04000
C1007       C  0.90553678  0.09957399  0.55615543    -0.12100
C1008       C  0.87590165  0.11296414  0.55425689     0.23300
C1009       C  0.86946952  0.15347226  0.56258350    -0.12600
C1010       C  0.89203462  0.17988615  0.57460589     0.04700
C1011       C  0.85122515  0.08446391  0.54493134     0.27100
C1012       C  0.83820086  0.08428246  0.50715156    -0.13300
C1013       C  0.81254507  0.06113992  0.49984885     0.05200
C1014       C  0.80017735  0.03567927  0.52967083    -0.09300
C1015       C  0.81412741  0.03563378  0.56766626     0.06000
C1016       C  0.83920754  0.06003531  0.57503376    -0.13600
Br1017     Br  0.82959341  0.17314839  0.55731192    -0.05700
Br1018     Br  0.96841036  0.10611740  0.57244462    -0.00100
Br1019     Br  0.79160589  0.07143433  0.45114259     0.00400
Br1020     Br  0.85715124  0.06127208  0.62715675    -0.04000
Br1021     Br  0.88267739  0.23613718  0.58143677     0.00500
Br1022     Br  0.91470987  0.04509449  0.54130760    -0.03300
Br1023     Br  0.85501666  0.11769809  0.46582179    -0.04200
Br1024     Br  0.79982408  0.00439075  0.61157172    -0.00200
C1025       C  0.68746215  0.02603410  0.52778221     0.01200
C1026       C  0.68355011  0.06488729  0.51088744     0.04000
C1027       C  0.65959335  0.08929633  0.52196676    -0.12100
C1028       C  0.63677025  0.07341707  0.54555011     0.23300
C1029       C  0.63776791  0.03305857  0.55754568    -0.12600
C1030       C  0.66336171  0.00980576  0.55043673     0.04700
C1031       C  0.61268634  0.09986829  0.55999276     0.27100
C1032       C  0.61369524  0.11386761  0.59912259    -0.13300
C1033       C  0.59322873  0.14273500  0.61210060     0.05200
C1034       C  0.56947264  0.15511519  0.58692960    -0.09300
C1035       C  0.56752685  0.13851232  0.54824744     0.06000
C1036       C  0.58938989  0.11155960  0.53480156    -0.13600
Br1037     Br  0.60384527  0.01071160  0.58539812    -0.05700
Br1038     Br  0.70825954  0.08357604  0.46816570    -0.00100
Br1039     Br  0.60067405  0.16685210  0.66331511     0.00400
Br1040     Br  0.58726674  0.08938949  0.48207557    -0.04000
Br1041     Br  0.66291131  0.95722001  0.57369128     0.00500
Br1042     Br  0.65842564  0.14507735  0.50563321    -0.03300
Br1043     Br  0.64290897  0.09215751  0.63542456    -0.04200
Br1044     Br  0.53501132  0.15106398  0.51294846    -0.00200
C1045       C  0.00702921  0.32853161  0.75283552     0.01200
C1046       C  0.98697784  0.36047692  0.75862245     0.04000
C1047       C  0.98856813  0.38385837  0.79319145    -0.12100
C1048       C  0.01056550  0.37605720  0.82200191     0.23300
C1049       C  0.53027969  0.34352864  0.81662217    -0.12600
C1050       C  0.52860296  0.31999343  0.78212264     0.04700
C1051       C  0.01140221  0.40066994  0.85884643     0.27100
C1052       C  0.52061622  0.44099449  0.85739765    -0.13300
C1053       C  0.51640219  0.46617807  0.89041333     0.05200
C1054       C  0.00672149  0.45037024  0.92753542    -0.09300
C1055       C  0.99937133  0.40859986  0.92900653     0.06000
C1056       C  0.00021603  0.38486193  0.89446901    -0.13600
Br1057     Br  0.55809407  0.32885395  0.85775355    -0.05700
Br1058     Br  0.95745281  0.37273742  0.71894831    -0.00100
Br1059     Br  0.51896063  0.52327280  0.88152231     0.00400
Br1060     Br  0.98515346  0.33028083  0.89512075    -0.04000
Br1061     Br  0.55447689  0.27394879  0.77686049     0.00500
Br1062     Br  0.95925015  0.42505344  0.80231621    -0.03300
Br1063     Br  0.53829998  0.46193216  0.80933279    -0.04200
Br1064     Br  0.98878847  0.38071826  0.97653030    -0.00200
C1065       C  0.82628018  0.16290062  0.91733267     0.01200
C1066       C  0.85010608  0.14994135  0.89258945     0.04000
C1067       C  0.87053931  0.12104887  0.90636758    -0.12100
C1068       C  0.86950285  0.10737470  0.94584838     0.23300
C1069       C  0.84552875  0.11854255  0.97010473    -0.12600
C1070       C  0.82386105  0.14581956  0.95603008     0.04700
C1071       C  0.89426342  0.08223116  0.96186800     0.27100
C1072       C  0.89642668  0.04146674  0.95201954    -0.13300
C1073       C  0.92191590  0.01899522  0.96246956     0.05200
C1074       C  0.94538575  0.03684347  0.98494054    -0.09300
C1075       C  0.94080853  0.07672788  0.99852965     0.06000
C1076       C  0.91620147  0.09957362  0.98586496    -0.13600
Br1077     Br  0.84197687  0.09458146  0.02220367    -0.05700
Br1078     Br  0.85759046  0.17308234  0.84063207    -0.00100
Br1079     Br  0.92203439  0.96462157  0.94449130     0.00400
Br1080     Br  0.91257000  0.15522032  0.00117566    -0.04000
Br1081     Br  0.79086796  0.15812468  0.99049490     0.00500
Br1082     Br  0.89932778  0.09834343  0.87039178    -0.03300
Br1083     Br  0.86389286  0.01696935  0.92336076    -0.04200
Br1084     Br  0.96637093  0.09971012  0.03805051    -0.00200
C1085       C  0.67880367  0.17462609  0.92749053     0.01200
C1086       C  0.68532154  0.13371016  0.93491129     0.04000
C1087       C  0.66272080  0.10746461  0.94802894    -0.12100
C1088       C  0.63348060  0.12172395  0.95245670     0.23300
C1089       C  0.62749082  0.16302690  0.94733690    -0.12600
C1090       C  0.65022370  0.18949877  0.93593419     0.04700
C1091       C  0.60893101  0.09362024  0.96261718     0.27100
C1092       C  0.59600961  0.06957576  0.93318014    -0.13300
C1093       C  0.57162696  0.04452479  0.94237079     0.05200
C1094       C  0.55794452  0.04627318  0.98038872    -0.09300
C1095       C  0.57066636  0.07232009  0.00897482     0.06000
C1096       C  0.59704891  0.09331893  0.00099477    -0.13600
Br1097     Br  0.58814418  0.18374915  0.95601598    -0.05700
Br1098     Br  0.72474311  0.11312338  0.92607464    -0.00100
Br1099     Br  0.55831820  0.00906391  0.90158988     0.00400
Br1100     Br  0.61652440  0.12331208  0.04235952    -0.04000
Br1101     Br  0.64263092  0.24671190  0.93475842     0.00500
Br1102     Br  0.67161072  0.05211704  0.96069021    -0.03300
Br1103     Br  0.61142346  0.07222154  0.87967623    -0.04200
Br1104     Br  0.54933789  0.08726951  0.05595036    -0.00200
C1105       C  0.49888703  0.05745565  0.93814981     0.01200
C1106       C  0.98823267  0.03788604  0.90363545     0.04000
C1107       C  0.98315450  0.05961632  0.86835375    -0.12100
C1108       C  0.49335518  0.09937191  0.86471919     0.23300
C1109       C  0.50704280  0.11780932  0.89714445    -0.12600
C1110       C  0.50744127  0.09852249  0.93435761     0.04700
C1111       C  0.49128941  0.12131774  0.82635144     0.27100
C1112       C  0.51015300  0.11064057  0.79471484    -0.13300
C1113       C  0.50937454  0.13257733  0.75898558     0.05200
C1114       C  0.49002033  0.16556636  0.75484823    -0.09300
C1115       C  0.97130884  0.17650818  0.78653771     0.06000
C1116       C  0.97222861  0.15482096  0.82239603    -0.13600
Br1117     Br  0.52633832  0.16934280  0.88969429    -0.05700
Br1118     Br  0.98591455  0.98019159  0.90116393    -0.00100
Br1119     Br  0.53493419  0.11745957  0.71566608     0.00400
Br1120     Br  0.94961403  0.17396164  0.86720054    -0.04000
Br1121     Br  0.51831030  0.13140853  0.97814044     0.00500
Br1122     Br  0.96317269  0.03442632  0.82436507    -0.03300
Br1123     Br  0.53890733  0.06810787  0.80143987    -0.04200
Br1124     Br  0.94615606  0.22341266  0.78229401    -0.00200
C1125       C  0.95183849  0.96142514  0.03639099     0.01200
C1126       C  0.92918874  0.97441701  0.06264174     0.04000
C1127       C  0.90550354  0.94874721  0.07263552    -0.12100
C1128       C  0.90384793  0.91005277  0.05645371     0.23300
C1129       C  0.92532984  0.89723977  0.02929441    -0.12600
C1130       C  0.94932707  0.92247230  0.01958687     0.04700
C1131       C  0.87972486  0.88270194  0.06913966     0.27100
C1132       C  0.88534632  0.85353489  0.09858407    -0.13300
C1133       C  0.86180487  0.83153534  0.11528551     0.05200
C1134       C  0.83279787  0.83606043  0.09982802    -0.09300
C1135       C  0.82726075  0.86570306  0.07065682     0.06000
C1136       C  0.85072113  0.88845193  0.05482320    -0.13600
Br1137     Br  0.92077613  0.84559801  0.00401208    -0.05700
Br1138     Br  0.92871249  0.02684133  0.08544142    -0.00100
Br1139     Br  0.87004232  0.79576405  0.15938701     0.00400
Br1140     Br  0.84334200  0.92689246  0.01282470    -0.04000
Br1141     Br  0.97568548  0.90504162  0.97819472     0.00500
Br1142     Br  0.87466483  0.96656918  0.10851807    -0.03300
Br1143     Br  0.92566292  0.84187555  0.11409375    -0.04200
Br1144     Br  0.78713115  0.87834906  0.05551990    -0.00200
C1145       C  0.68471366  0.84770452  0.08078751     0.01200
C1146       C  0.65950999  0.85818655  0.10407016     0.04000
C1147       C  0.63708712  0.88247496  0.08791010    -0.12100
C1148       C  0.64139607  0.90265570  0.05154519     0.23300
C1149       C  0.66768189  0.89586771  0.02994994    -0.12600
C1150       C  0.68816835  0.86644100  0.04304938     0.04700
C1151       C  0.61799919  0.93116300  0.03748699     0.27100
C1152       C  0.59854783  0.92055230  0.00674562    -0.13300
C1153       C  0.57209850  0.94251673  0.00072096     0.05200
C1154       C  0.56273051  0.97204239  0.02844034    -0.09300
C1155       C  0.58265602  0.98160078  0.05973003     0.06000
C1156       C  0.61125507  0.96464344  0.06089591    -0.13600
Br1157     Br  0.67560100  0.92710311  0.98267307    -0.05700
Br1158     Br  0.65545853  0.84234072  0.15920353    -0.00100
Br1159     Br  0.54736154  0.92746550  0.95688983     0.00400
Br1160     Br  0.64086428  0.98457412  0.09731719    -0.04000
Br1161     Br  0.71900834  0.85043503  0.00661428     0.00500
Br1162     Br  0.59956277  0.88674812  0.11543307    -0.03300
Br1163     Br  0.60708412  0.87405849  0.97461505    -0.04200
Br1164     Br  0.57110725  0.00989649  0.10642671    -0.00200
C1165       C  0.49919946  0.84869976  0.26366357     0.01200
C1166       C  0.97323619  0.86148237  0.24309004     0.04000
C1167       C  0.97539155  0.88970707  0.21191400    -0.12100
C1168       C  0.50328940  0.90294560  0.19878724     0.23300
C1169       C  0.52862859  0.89396093  0.22141966    -0.12600
C1170       C  0.52662956  0.86750934  0.25418145     0.04700
C1171       C  0.50605555  0.92236230  0.15903384     0.27100
C1172       C  0.51151899  0.89843158  0.12561429    -0.13300
C1173       C  0.51363370  0.91597084  0.08748831     0.05200
C1174       C  0.50811023  0.95767899  0.08177680    -0.09300
C1175       C  0.00269161  0.98134142  0.11606795     0.06000
C1176       C  0.00229132  0.96390274  0.15429168    -0.13600
Br1177     Br  0.56586597  0.91894582  0.20776583    -0.05700
Br1178     Br  0.93448245  0.83889557  0.25386910    -0.00100
Br1179     Br  0.52559374  0.88149233  0.04520305     0.00400
Br1180     Br  0.99666761  0.99671299  0.20074068    -0.04000
Br1181     Br  0.56154671  0.85863283  0.28628739     0.00500
Br1182     Br  0.94017079  0.91132967  0.18722534    -0.03300
Br1183     Br  0.51533978  0.84084096  0.13245608    -0.04200
Br1184     Br  0.99842415  0.03868362  0.11241098    -0.00200
loop_ 
_geom_bond_atom_site_label_1 
_geom_bond_atom_site_label_2 
_geom_bond_distance 
_geom_bond_site_symmetry_2 
_ccdc_geom_bond_type 
C1            C2   1.434       .  A
C1          C598   1.438   1_455  A
C1          C582   1.519       .  S
C2            C3   1.436   1_564  A
C2          C562   1.523       .  S
C3          C596   1.440       .  A
C3          C502   1.518       .  S
C4            C5   1.441       .  A
C4          C595   1.440       .  A
C4         C1105   1.518       .  S
C5            C6   1.435   1_546  A
C5          C482   1.531       .  S
C6          C593   1.438       .  A
C6          C533   1.509       .  S
Fe7          O23   2.089       .  S
Fe7          O13   2.054       .  S
Fe7          O20   2.055       .  S
Fe7          O12   2.094       .  S
Fe7         O610   1.932       .  S
Fe8          O11   2.085       .  S
Fe8          O15   2.056       .  S
Fe8          O19   2.072       .  S
Fe8          O24   2.045       .  S
Fe8          O18   1.935   1_455  S
Fe9          O21   2.095       .  S
Fe9          O10   2.063       .  S
Fe9         O619   2.058       .  S
Fe9         O606   2.098       .  S
Fe9         O610   1.952       .  S
O10          C17   1.271       .  A
O11          C25   1.274       .  A
O12          C17   1.278       .  A
O13          C16   1.265       .  A
O14        Fe601   2.098   1_455  S
O14          C26   1.273       .  A
O15         C620   1.269       .  A
C16         C393   1.495       .  S
C16          O21   1.274       .  A
C17         C413   1.491       .  S
O18        Fe599   1.932       .  S
O18        Fe601   1.952       .  S
O19          C22   1.270   1_455  A
O20         C614   1.268       .  A
C22         C522   1.472       .  S
C22         O612   1.268       .  A
O23          C28   1.274       .  A
O24          C26   1.263       .  A
C25         C373   1.476       .  S
C25          O27   1.270       .  A
C26         C442   1.496       .  S
O27        Fe601   2.058   1_455  S
C28         C453   1.482       .  S
C28         O607   1.269       .  A
C29          C30   1.447       .  A
C29         C626   1.445       .  A
C29         C462   1.529       .  S
C30          C31   1.445   1_556  A
C30         C293   1.520       .  S
C31          C32   1.435       .  A
C31         C333   1.533       .  S
C32         C625   1.436       .  A
C32         C353   1.520       .  S
C33          C34   1.435   1_554  A
C33         C624   1.436       .  A
C33         C313   1.511       .  S
C34         C621   1.445       .  A
C34         C282   1.530       .  S
Fe35         O51   2.099       .  S
Fe35         O41   2.057       .  S
Fe35         O48   2.055       .  S
Fe35         O40   2.086       .  S
Fe35        O638   1.942       .  S
Fe36         O39   2.068       .  S
Fe36         O43   2.056       .  S
Fe36         O47   2.102       .  S
Fe36         O52   2.062       .  S
Fe36         O46   1.940   1_455  S
Fe37         O49   2.096       .  S
Fe37         O38   2.069       .  S
Fe37        O647   2.067       .  S
Fe37        O634   2.090       .  S
Fe37        O638   1.952       .  S
O38          C45   1.269       .  A
O39          C53   1.270       .  A
O40          C45   1.273       .  A
O41          C44   1.269       .  A
O42        Fe629   2.090   1_455  S
O42          C54   1.274       .  A
O43         C648   1.264   1_455  A
C44         C222   1.492       .  S
C44          O49   1.276       .  A
C45         C233   1.482       .  S
O46        Fe627   1.942       .  S
O46        Fe629   1.952       .  S
O47          C50   1.276   1_455  A
O48         C642   1.269       .  A
C50         C573   1.499       .  S
C50         O640   1.269       .  A
O51          C56   1.271       .  A
O52          C54   1.272       .  A
C53         C193   1.473       .  S
C53          O55   1.271       .  A
C54         C253   1.483       .  S
O55        Fe629   2.067   1_455  S
C56         C362   1.502       .  S
C56         O635   1.264       .  A
C57          C58   1.447       .  A
C57          C62   1.448       .  A
C57         C173   1.537       .  S
C58          C59   1.434   1_545  A
C58         C433   1.521       .  S
C59          C60   1.429       .  A
C59         C262   1.515       .  S
C60          C61   1.437       .  A
C60         C162   1.523       .  S
C61          C62   1.451   1_565  A
C61         C242   1.528       .  S
C62         C422   1.528       .  S
Fe63         O79   2.061       .  S
Fe63         O69   2.078       .  S
Fe63         O76   2.089       .  S
Fe63         O68   2.054       .  S
Fe63         O74   1.939       .  S
Fe64         O67   2.049       .  S
Fe64         O71   2.105       .  S
Fe64         O75   2.054       .  S
Fe64         O80   2.106       .  S
Fe64         O74   1.946       .  S
Fe65         O83   2.079       .  S
Fe65         O70   2.070       .  S
Fe65         O77   2.074       .  S
Fe65         O66   2.090       .  S
Fe65         O74   1.951       .  S
O66          C73   1.273       .  A
O67          C81   1.263       .  A
O68          C73   1.270       .  A
O69          C72   1.263       .  A
O70          C82   1.272       .  A
O71          C84   1.278       .  A
C72         C553   1.502       .  S
C72          O77   1.276       .  A
C73         C322   1.479       .  S
O75          C78   1.266       .  A
O76          C78   1.272       .  A
C78         C133   1.474       .  S
O79          C84   1.269       .  A
O80          C82   1.281       .  A
C81         C542   1.479       .  S
C81          O83   1.272       .  A
C82         C342   1.489       .  S
C84         C153   1.498       .  S
C85          C86   1.455       .  A
C85          C90   1.446       .  A
C85         C142   1.549       .  S
C86          C87   1.431       .  A
C86         C213   1.515       .  S
C87          C88   1.434       .  A
C87         C402   1.529       .  S
C88          C89   1.443       .  A
C88         C122   1.521       .  S
C89          C90   1.451       .  A
C89         C382   1.511       .  S
C90         C202   1.561       .  S
Fe91        O107   2.061       .  S
Fe91         O97   2.084       .  S
Fe91        O104   2.072       .  S
Fe91         O96   2.050       .  S
Fe91        O102   1.936       .  S
Fe92         O95   2.055       .  S
Fe92         O99   2.089       .  S
Fe92        O103   2.061       .  S
Fe92        O108   2.098       .  S
Fe92        O102   1.938       .  S
Fe93        O111   2.107       .  S
Fe93         O98   2.054       .  S
Fe93        O105   2.057       .  S
Fe93         O94   2.115       .  S
Fe93        O102   1.958       .  S
O94         C101   1.277       .  A
O95         C109   1.265       .  A
O96         C101   1.263       .  A
O97         C100   1.274       .  A
O98         C110   1.269       .  A
O99         C112   1.274       .  A
C100        C493   1.479       .  S
C100        O105   1.268       .  A
C101        C273   1.509       .  S
O103        C106   1.270       .  A
O104        C106   1.270       .  A
C106        C113   1.474       .  S
O107        C112   1.270       .  A
O108        C110   1.277       .  A
C109        C473   1.507       .  S
C109        O111   1.276       .  A
C110        C302   1.487       .  S
C112        C182   1.486       .  S
C113        C114   1.408       .  A
C113        C118   1.411       .  A
C114        C115   1.406       .  A
C114       Br126   1.930       .  S
C115        C116   1.413       .  A
C115       Br130   1.929       .  S
C116        C117   1.413       .  A
C116        C119   1.489       .  S
C117        C118   1.406       .  A
C117       Br125   1.933       .  S
C118       Br129   1.932       .  S
C119        C120   1.404       .  A
C119        C124   1.406       .  A
C120        C121   1.409       .  A
C120       Br131   1.936       .  S
C121        C122   1.425       .  A
C121       Br127   1.912       .  S
C122        C123   1.421       .  A
C123        C124   1.408       .  A
C123       Br132   1.925       .  S
C124       Br128   1.933       .  S
C133        C134   1.407       .  A
C133        C138   1.409       .  A
C134        C135   1.410       .  A
C134       Br146   1.927       .  S
C135        C136   1.412       .  A
C135       Br150   1.929       .  S
C136        C137   1.409       .  A
C136        C139   1.487       .  S
C137        C138   1.405       .  A
C137       Br145   1.925       .  S
C138       Br149   1.931       .  S
C139        C140   1.407       .  A
C139        C144   1.410       .  A
C140        C141   1.411       .  A
C140       Br151   1.929       .  S
C141        C142   1.424       .  A
C141       Br147   1.919       .  S
C142        C143   1.403       .  A
C143        C144   1.407       .  A
C143       Br152   1.915       .  S
C144       Br148   1.921       .  S
C153        C154   1.416       .  A
C153        C158   1.421       .  A
C154        C155   1.412       .  A
C154       Br166   1.931       .  S
C155        C156   1.408       .  A
C155       Br170   1.928       .  S
C156        C157   1.407       .  A
C156        C159   1.496       .  S
C157        C158   1.412       .  A
C157       Br165   1.928       .  S
C158       Br169   1.934       .  S
C159        C160   1.407       .  A
C159        C164   1.403       .  A
C160        C161   1.415       .  A
C160       Br171   1.933       .  S
C161        C162   1.420       .  A
C161       Br167   1.910       .  S
C162        C163   1.423       .  A
C163        C164   1.411       .  A
C163       Br172   1.923   1_565  S
C164       Br168   1.931       .  S
C173        C174   1.425       .  A
C173        C178   1.430       .  A
C174        C175   1.414       .  A
C174       Br186   1.923   1_545  S
C175        C176   1.406       .  A
C175       Br190   1.933       .  S
C176        C177   1.403       .  A
C176        C179   1.501       .  S
C177        C178   1.415       .  A
C177       Br185   1.938       .  S
C178       Br189   1.909       .  S
C179        C180   1.414       .  A
C179        C184   1.414       .  A
C180        C181   1.410       .  A
C180       Br191   1.930       .  S
C181        C182   1.414       .  A
C181       Br187   1.934       .  S
C182        C183   1.410       .  A
C183        C184   1.410       .  A
C183       Br192   1.930       .  S
C184       Br188   1.928       .  S
C193        C194   1.408       .  A
C193        C198   1.409       .  A
C194        C195   1.404       .  A
C194       Br206   1.932       .  S
C195        C196   1.413       .  A
C195       Br210   1.932       .  S
C196        C197   1.411       .  A
C196        C199   1.489       .  S
C197        C198   1.410       .  A
C197       Br205   1.925       .  S
C198       Br209   1.930       .  S
C199        C200   1.406       .  A
C199        C204   1.401       .  A
C200        C201   1.417       .  A
C200       Br211   1.940       .  S
C201        C202   1.437       .  A
C201       Br207   1.908       .  S
C202        C203   1.419       .  A
C203        C204   1.402       .  A
C203       Br212   1.912       .  S
C204       Br208   1.921       .  S
C213        C214   1.422       .  A
C213        C218   1.429       .  A
C214        C215   1.409       .  A
C214       Br226   1.941       .  S
C215        C216   1.405       .  A
C215       Br230   1.930       .  S
C216        C217   1.403       .  A
C216        C219   1.489       .  S
C217        C218   1.410       .  A
C217       Br225   1.937       .  S
C218       Br229   1.918       .  S
C219        C220   1.404       .  A
C219        C224   1.409       .  A
C220        C221   1.406       .  A
C220       Br231   1.925       .  S
C221        C222   1.420       .  A
C221       Br227   1.935       .  S
C222        C223   1.419       .  A
C223        C224   1.411       .  A
C223       Br232   1.933       .  S
C224       Br228   1.932       .  S
C233        C234   1.411       .  A
C233        C238   1.410       .  A
C234        C235   1.412       .  A
C234       Br246   1.925       .  S
C235        C236   1.412       .  A
C235       Br250   1.929       .  S
C236        C237   1.411       .  A
C236        C239   1.494       .  S
C237        C238   1.405       .  A
C237       Br245   1.925       .  S
C238       Br249   1.930       .  S
C239        C240   1.403       .  A
C239        C244   1.404       .  A
C240        C241   1.412       .  A
C240       Br251   1.932       .  S
C241        C242   1.424       .  A
C241       Br247   1.921       .  S
C242        C243   1.429       .  A
C243        C244   1.413       .  A
C243       Br252   1.912       .  S
C244       Br248   1.940       .  S
C253        C254   1.411       .  A
C253        C258   1.414       .  A
C254        C255   1.410       .  A
C254       Br266   1.925       .  S
C255        C256   1.411       .  A
C255       Br270   1.931       .  S
C256        C257   1.408       .  A
C256        C259   1.490       .  S
C257        C258   1.407       .  A
C257       Br265   1.930       .  S
C258       Br269   1.931       .  S
C259        C260   1.406       .  A
C259        C264   1.404       .  A
C260        C261   1.409       .  A
C260       Br271   1.936       .  S
C261        C262   1.419       .  A
C261       Br267   1.913   1_565  S
C262        C263   1.424       .  A
C263        C264   1.411       .  A
C263       Br272   1.929       .  S
C264       Br268   1.933       .  S
C273        C274   1.425       .  A
C273        C278   1.430       .  A
C274        C275   1.415       .  A
C274       Br286   1.933       .  S
C275        C276   1.407       .  A
C275       Br290   1.931   1_556  S
C276        C277   1.403       .  A
C276        C279   1.493       .  S
C277        C278   1.408       .  A
C277       Br285   1.936       .  S
C278       Br289   1.939       .  S
C279        C280   1.403       .  A
C279        C284   1.403       .  A
C280        C281   1.408       .  A
C280       Br291   1.932       .  S
C281        C282   1.422       .  A
C281       Br287   1.921   1_556  S
C282        C283   1.432       .  A
C283        C284   1.415       .  A
C283       Br292   1.913       .  S
C284       Br288   1.938       .  S
C293        C294   1.424       .  A
C293        C298   1.422   1_556  A
C294        C295   1.413       .  A
C294       Br306   1.914       .  S
C295        C296   1.406       .  A
C295       Br310   1.937       .  S
C296        C297   1.403       .  A
C296        C299   1.494       .  S
C297        C298   1.410   1_556  A
C297       Br305   1.930   1_556  S
C298       Br309   1.926       .  S
C299        C300   1.408       .  A
C299        C304   1.410       .  A
C300        C301   1.412       .  A
C300       Br311   1.928       .  S
C301        C302   1.416       .  A
C301       Br307   1.929       .  S
C302        C303   1.413       .  A
C303        C304   1.407       .  A
C303       Br312   1.935       .  S
C304       Br308   1.924       .  S
C313        C314   1.423   1_554  A
C313        C318   1.421       .  A
C314        C315   1.408       .  A
C314       Br326   1.930       .  S
C315        C316   1.402   1_556  A
C315       Br330   1.931       .  S
C316        C317   1.405       .  A
C316        C319   1.483       .  S
C317        C318   1.407       .  A
C317       Br325   1.939       .  S
C318       Br329   1.915       .  S
C319        C320   1.409       .  A
C319        C324   1.405       .  A
C320        C321   1.409       .  A
C320       Br331   1.929   1_554  S
C321        C322   1.412       .  A
C321       Br327   1.927       .  S
C322        C323   1.415       .  A
C323        C324   1.404       .  A
C323       Br332   1.931       .  S
C324       Br328   1.929       .  S
C333        C334   1.425   1_554  A
C333        C338   1.431       .  A
C334        C335   1.415       .  A
C334       Br346   1.924       .  S
C335        C336   1.405   1_556  A
C335       Br350   1.931       .  S
C336        C337   1.402       .  A
C336        C339   1.496       .  S
C337        C338   1.413       .  A
C337       Br345   1.940       .  S
C338       Br349   1.911       .  S
C339        C340   1.408       .  A
C339        C344   1.412       .  A
C340        C341   1.403       .  A
C340       Br351   1.924       .  S
C341        C342   1.409       .  A
C341       Br347   1.921       .  S
C342        C343   1.414       .  A
C343        C344   1.416       .  A
C343       Br352   1.925       .  S
C344       Br348   1.927       .  S
C353        C354   1.422       .  A
C353        C950   1.422       .  A
C354        C355   1.410       .  A
C354       Br366   1.922       .  S
C355        C356   1.403       .  A
C355       Br370   1.933       .  S
C356        C949   1.405       .  A
C356        C359   1.492       .  S
C357        C358   1.413       .  A
C357        C948   1.405       .  A
C357       Br365   1.935       .  S
C358        C945   1.422   1_655  A
C358       Br369   1.910       .  S
C359        C360   1.407       .  A
C359        C956   1.405       .  A
C360        C361   1.412       .  A
C360       Br371   1.930       .  S
C361        C362   1.422       .  A
C361       Br367   1.933       .  S
C362        C955   1.425       .  A
C363        C364   1.410       .  A
C363        C954   1.425   1_455  A
C363       Br372   1.936       .  S
C364        C951   1.405   1_455  A
C364       Br368   1.932       .  S
C373        C374   1.410       .  A
C373        C378   1.409       .  A
C374        C375   1.405       .  A
C374       Br386   1.934       .  S
C375        C376   1.412       .  A
C375       Br390   1.926       .  S
C376        C377   1.412       .  A
C376        C379   1.491       .  S
C377        C378   1.409       .  A
C377       Br385   1.926       .  S
C378       Br389   1.930       .  S
C379        C380   1.408       .  A
C379        C384   1.405       .  A
C380        C381   1.411       .  A
C380       Br391   1.932       .  S
C381        C382   1.424       .  A
C381       Br387   1.928       .  S
C382        C383   1.420       .  A
C383        C384   1.406       .  A
C383       Br392   1.930       .  S
C384       Br388   1.930       .  S
C393        C394   1.423       .  A
C393        C398   1.420       .  A
C394        C395   1.405       .  A
C394       Br406   1.937       .  S
C395        C396   1.404       .  A
C395       Br410   1.928       .  S
C396        C397   1.407       .  A
C396        C399   1.489       .  S
C397        C398   1.412       .  A
C397       Br405   1.929       .  S
C398       Br409   1.932       .  S
C399        C400   1.404       .  A
C399        C404   1.399       .  A
C400        C401   1.410       .  A
C400       Br411   1.930       .  S
C401        C402   1.422       .  A
C401       Br407   1.930       .  S
C402        C403   1.433       .  A
C403        C404   1.412       .  A
C403       Br412   1.911       .  S
C404       Br408   1.941       .  S
C413        C414   1.417       .  A
C413        C418   1.413       .  A
C414        C415   1.415       .  A
C414       Br426   1.929       .  S
C415        C416   1.410       .  A
C415       Br430   1.929       .  S
C416        C417   1.409       .  A
C416        C419   1.497       .  S
C417        C418   1.406       .  A
C417       Br425   1.922       .  S
C418       Br429   1.934       .  S
C419        C420   1.404       .  A
C419        C424   1.405       .  A
C420        C421   1.412       .  A
C420       Br431   1.932       .  S
C421        C422   1.424       .  A
C421       Br427   1.924       .  S
C422        C423   1.428       .  A
C423        C424   1.415       .  A
C423       Br432   1.915       .  S
C424       Br428   1.937       .  S
C433        C434   1.420       .  A
C433        C438   1.431       .  A
C434        C435   1.403       .  A
C434       Br446   1.921       .  S
C435        C436   1.401       .  A
C435       Br450   1.933       .  S
C436        C437   1.401       .  A
C436        C439   1.482       .  S
C437        C438   1.411       .  A
C437       Br445   1.940       .  S
C438       Br449   1.913   1_545  S
C439        C440   1.403       .  A
C439        C444   1.405       .  A
C440        C441   1.404       .  A
C440       Br451   1.936       .  S
C441        C442   1.427       .  A
C441       Br447   1.939       .  S
C442        C443   1.423       .  A
C443        C444   1.409       .  A
C443       Br452   1.934       .  S
C444       Br448   1.932       .  S
C453        C454   1.410       .  A
C453       C1050   1.415       .  A
C454        C455   1.408       .  A
C454       Br466   1.930       .  S
C455        C456   1.412       .  A
C455       Br470   1.930       .  S
C456       C1049   1.413       .  A
C456        C459   1.493       .  S
C457        C458   1.409       .  A
C457       C1048   1.413       .  A
C457       Br465   1.931       .  S
C458       C1045   1.415       .  A
C458       Br469   1.935       .  S
C459        C464   1.402       .  A
C459       C1052   1.405       .  A
C460        C461   1.411       .  A
C460       C1051   1.405       .  A
C460       Br471   1.932       .  S
C461       C1054   1.423       .  A
C461       Br467   1.925       .  S
C462        C463   1.429       .  A
C462       C1053   1.423       .  A
C463        C464   1.412       .  A
C463       Br472   1.907       .  S
C464       Br468   1.939       .  S
C473        C474   1.428       .  A
C473        C478   1.424       .  A
C474        C475   1.409       .  A
C474       Br486   1.939       .  S
C475        C476   1.405       .  A
C475       Br490   1.933       .  S
C476        C477   1.407       .  A
C476        C479   1.495       .  S
C477        C478   1.414       .  A
C477       Br485   1.931   1_556  S
C478       Br489   1.933       .  S
C479        C480   1.402       .  A
C479        C484   1.405       .  A
C480        C481   1.415       .  A
C480       Br491   1.940       .  S
C481        C482   1.433       .  A
C481       Br487   1.912   1_545  S
C482        C483   1.422       .  A
C483        C484   1.410       .  A
C483       Br492   1.925   1_556  S
C484       Br488   1.932   1_556  S
C493        C494   1.413       .  A
C493        C498   1.410       .  A
C494        C495   1.411       .  A
C494       Br506   1.929       .  S
C495        C496   1.409       .  A
C495       Br510   1.930       .  S
C496        C497   1.410       .  A
C496        C499   1.487       .  S
C497        C498   1.403       .  A
C497       Br505   1.926       .  S
C498       Br509   1.934       .  S
C499        C500   1.406       .  A
C499        C504   1.400   1_556  A
C500        C501   1.412       .  A
C500       Br511   1.935       .  S
C501        C502   1.424       .  A
C501       Br507   1.915       .  S
C502        C503   1.422   1_556  A
C503        C504   1.404       .  A
C503       Br512   1.921       .  S
C504       Br508   1.932       .  S
C513        C518   1.425   1_655  A
C513       C1106   1.422       .  A
C513        C596   1.518   1_655  S
C514        C515   1.407       .  A
C514       C1105   1.422       .  A
C514       Br526   1.925   1_545  S
C515       C1108   1.405       .  A
C515       Br530   1.932       .  S
C516        C517   1.401   1_655  A
C516       C1107   1.405       .  A
C516        C519   1.485       .  S
C517        C518   1.406       .  A
C517       Br525   1.937       .  S
C518       Br529   1.908       .  S
C519        C520   1.411   1_655  A
C519       C1116   1.413       .  A
C520        C521   1.405       .  A
C520       Br531   1.932       .  S
C521        C522   1.409   1_455  A
C521       Br527   1.929       .  S
C522       C1115   1.411       .  A
C523        C524   1.405       .  A
C523       C1114   1.411       .  A
C523       Br532   1.934       .  S
C524       C1111   1.413       .  A
C524       Br528   1.934       .  S
C533        C534   1.420       .  A
C533        C538   1.422       .  A
C534        C535   1.407       .  A
C534       Br546   1.911   1_565  S
C535        C536   1.404       .  A
C535       Br550   1.938       .  S
C536        C537   1.401       .  A
C536        C539   1.479       .  S
C537        C538   1.406       .  A
C537       Br545   1.934       .  S
C538       Br549   1.925   1_554  S
C539        C540   1.407       .  A
C539        C544   1.407       .  A
C540        C541   1.405       .  A
C540       Br551   1.931       .  S
C541        C542   1.416       .  A
C541       Br547   1.935       .  S
C542        C543   1.411       .  A
C543        C544   1.404       .  A
C543       Br552   1.926       .  S
C544       Br548   1.931       .  S
C553        C554   1.425       .  A
C553        C558   1.422       .  A
C554        C555   1.403       .  A
C554       Br566   1.938       .  S
C555        C556   1.408       .  A
C555       Br570   1.935       .  S
C556        C557   1.410       .  A
C556        C559   1.494       .  S
C557        C558   1.415       .  A
C557       Br565   1.931   1_554  S
C558       Br569   1.932       .  S
C559        C560   1.405       .  A
C559        C564   1.403       .  A
C560        C561   1.413       .  A
C560       Br571   1.933   1_554  S
C561        C562   1.424       .  A
C561       Br567   1.922   1_554  S
C562        C563   1.424       .  A
C563        C564   1.408       .  A
C563       Br572   1.912   1_565  S
C564       Br568   1.935       .  S
C573        C578   1.421   1_655  A
C573       C1166   1.425       .  A
C574        C575   1.408       .  A
C574       C1165   1.425       .  A
C574       Br586   1.935       .  S
C575       C1168   1.403       .  A
C575       Br590   1.931       .  S
C576        C577   1.406       .  A
C576       C1167   1.403   1_455  A
C576        C579   1.490       .  S
C577        C578   1.411       .  A
C577       Br585   1.927       .  S
C578       Br589   1.933       .  S
C579        C580   1.406       .  A
C579       C1176   1.401       .  A
C580        C581   1.412       .  A
C580       Br591   1.936       .  S
C581        C582   1.422       .  A
C581       Br587   1.913       .  S
C582       C1175   1.424       .  A
C583        C584   1.410       .  A
C583       C1174   1.424       .  A
C583       Br592   1.921   1_565  S
C584       C1171   1.401       .  A
C584       Br588   1.932       .  S
C593        C594   1.434       .  A
C593       C1174   1.519       .  S
C594        C595   1.436   1_564  A
C594       C1154   1.523       .  S
C595       C1094   1.518       .  S
C596        C597   1.441   1_455  A
C597        C598   1.435   1_546  A
C597       C1074   1.531       .  S
C598       C1125   1.509       .  S
Fe599       O615   2.089       .  S
Fe599       O605   2.054       .  S
Fe599       O612   2.055       .  S
Fe599       O604   2.094       .  S
Fe600       O603   2.085       .  S
Fe600       O607   2.056       .  S
Fe600       O611   2.072       .  S
Fe600       O616   2.045       .  S
Fe600       O610   1.935       .  S
Fe601       O613   2.095       .  S
Fe601       O602   2.063       .  S
O602        C609   1.271       .  A
O603        C617   1.274       .  A
O604        C609   1.278       .  A
O605        C608   1.265       .  A
O606        C618   1.273       .  A
C608        C985   1.495       .  S
C608        O613   1.274       .  A
C609       C1005   1.491       .  S
O611        C614   1.270       .  A
C614       C1114   1.472       .  S
O615        C620   1.274   1_655  A
O616        C618   1.263       .  A
C617        C965   1.476       .  S
C617        O619   1.270       .  A
C618       C1034   1.496       .  S
C620       C1045   1.482       .  S
C621        C622   1.447   1_455  A
C621       C1054   1.529       .  S
C622        C623   1.445   1_556  A
C622        C885   1.520       .  S
C623        C624   1.435   1_655  A
C623        C925   1.533       .  S
C624        C945   1.520       .  S
C625        C626   1.435   1_554  A
C625        C905   1.511       .  S
C626        C874   1.530       .  S
Fe627       O643   2.099       .  S
Fe627       O633   2.057       .  S
Fe627       O640   2.055       .  S
Fe627       O632   2.086       .  S
Fe628       O631   2.068       .  S
Fe628       O635   2.056       .  S
Fe628       O639   2.102       .  S
Fe628       O644   2.062       .  S
Fe628       O638   1.940       .  S
Fe629       O641   2.096       .  S
Fe629       O630   2.069       .  S
O630        C637   1.269       .  A
O631        C645   1.270       .  A
O632        C637   1.273       .  A
O633        C636   1.269       .  A
O634        C646   1.274       .  A
C636        C814   1.492       .  S
C636        O641   1.276       .  A
C637        C825   1.482       .  S
O639        C642   1.276       .  A
C642       C1165   1.499       .  S
O643        C648   1.271       .  A
O644        C646   1.272       .  A
C645        C785   1.473       .  S
C645        O647   1.271       .  A
C646        C845   1.483       .  S
C648        C954   1.502       .  S
C649        C650   1.447       .  A
C649        C654   1.448       .  A
C649        C765   1.537       .  S
C650        C651   1.434   1_545  A
C650       C1025   1.521       .  S
C651        C652   1.429       .  A
C651        C854   1.515       .  S
C652        C653   1.437       .  A
C652        C754   1.523       .  S
C653        C654   1.451   1_565  A
C653        C834   1.528       .  S
C654       C1014   1.528       .  S
Fe655       O671   2.061       .  S
Fe655       O661   2.078       .  S
Fe655       O668   2.089       .  S
Fe655       O660   2.054       .  S
Fe655       O666   1.939       .  S
Fe656       O659   2.049       .  S
Fe656       O663   2.105       .  S
Fe656       O667   2.054       .  S
Fe656       O672   2.106       .  S
Fe656       O666   1.946       .  S
Fe657       O675   2.079       .  S
Fe657       O662   2.070       .  S
Fe657       O669   2.074       .  S
Fe657       O658   2.090       .  S
Fe657       O666   1.951       .  S
O658        C665   1.273       .  A
O659        C673   1.263       .  A
O660        C665   1.270       .  A
O661        C664   1.263       .  A
O662        C674   1.272       .  A
O663        C676   1.279       .  A
C664       C1145   1.502       .  S
C664        O669   1.276       .  A
C665        C914   1.479       .  S
O667        C670   1.266       .  A
O668        C670   1.272       .  A
C670        C725   1.474       .  S
O671        C676   1.269       .  A
O672        C674   1.281       .  A
C673       C1134   1.479       .  S
C673        O675   1.272       .  A
C674        C934   1.489       .  S
C676        C745   1.498       .  S
C677        C678   1.455       .  A
C677        C682   1.446       .  A
C677        C734   1.549       .  S
C678        C679   1.431       .  A
C678        C805   1.515       .  S
C679        C680   1.434       .  A
C679        C994   1.529       .  S
C680        C681   1.443       .  A
C680        C714   1.521       .  S
C681        C682   1.451       .  A
C681        C974   1.511       .  S
C682        C794   1.561       .  S
Fe683       O699   2.061       .  S
Fe683       O689   2.084       .  S
Fe683       O696   2.072       .  S
Fe683       O688   2.050       .  S
Fe683       O694   1.936       .  S
Fe684       O687   2.055       .  S
Fe684       O691   2.089       .  S
Fe684       O695   2.061       .  S
Fe684       O700   2.098       .  S
Fe684       O694   1.938       .  S
Fe685       O703   2.107       .  S
Fe685       O690   2.054       .  S
Fe685       O697   2.057       .  S
Fe685       O686   2.115       .  S
Fe685       O694   1.958       .  S
O686        C693   1.277       .  A
O687        C701   1.265       .  A
O688        C693   1.263       .  A
O689        C692   1.274       .  A
O690        C702   1.269       .  A
O691        C704   1.274       .  A
C692       C1085   1.479       .  S
C692        O697   1.268       .  A
C693        C865   1.509       .  S
O695        C698   1.270       .  A
O696        C698   1.270       .  A
C698        C705   1.474       .  S
O699        C704   1.270       .  A
O700        C702   1.277       .  A
C701       C1065   1.507       .  S
C701        O703   1.276       .  A
C702        C894   1.487       .  S
C704        C774   1.486       .  S
C705        C706   1.408       .  A
C705        C710   1.411       .  A
C706        C707   1.406       .  A
C706       Br718   1.930       .  S
C707        C708   1.413       .  A
C707       Br722   1.929       .  S
C708        C709   1.413       .  A
C708        C711   1.489       .  S
C709        C710   1.406       .  A
C709       Br717   1.933       .  S
C710       Br721   1.932       .  S
C711        C712   1.404       .  A
C711        C716   1.406       .  A
C712        C713   1.409       .  A
C712       Br723   1.936       .  S
C713        C714   1.425       .  A
C713       Br719   1.912       .  S
C714        C715   1.421       .  A
C715        C716   1.408       .  A
C715       Br724   1.925       .  S
C716       Br720   1.933       .  S
C725        C726   1.407       .  A
C725        C730   1.409       .  A
C726        C727   1.410       .  A
C726       Br738   1.927       .  S
C727        C728   1.412       .  A
C727       Br742   1.929       .  S
C728        C729   1.409       .  A
C728        C731   1.487       .  S
C729        C730   1.405       .  A
C729       Br737   1.925       .  S
C730       Br741   1.931       .  S
C731        C732   1.407       .  A
C731        C736   1.410       .  A
C732        C733   1.411       .  A
C732       Br743   1.929       .  S
C733        C734   1.424       .  A
C733       Br739   1.919       .  S
C734        C735   1.403       .  A
C735        C736   1.407       .  A
C735       Br744   1.915       .  S
C736       Br740   1.921       .  S
C745        C746   1.416       .  A
C745        C750   1.421       .  A
C746        C747   1.412       .  A
C746       Br758   1.931       .  S
C747        C748   1.408       .  A
C747       Br762   1.928       .  S
C748        C749   1.407       .  A
C748        C751   1.496       .  S
C749        C750   1.412       .  A
C749       Br757   1.928       .  S
C750       Br761   1.934       .  S
C751        C752   1.407       .  A
C751        C756   1.403       .  A
C752        C753   1.415       .  A
C752       Br763   1.933       .  S
C753        C754   1.420       .  A
C753       Br759   1.910       .  S
C754        C755   1.423       .  A
C755        C756   1.411       .  A
C755       Br764   1.923   1_565  S
C756       Br760   1.931       .  S
C765        C766   1.425       .  A
C765        C770   1.430       .  A
C766        C767   1.414       .  A
C766       Br778   1.923   1_545  S
C767        C768   1.406       .  A
C767       Br782   1.933       .  S
C768        C769   1.403       .  A
C768        C771   1.501       .  S
C769        C770   1.415       .  A
C769       Br777   1.938       .  S
C770       Br781   1.909       .  S
C771        C772   1.414       .  A
C771        C776   1.414       .  A
C772        C773   1.410       .  A
C772       Br783   1.930       .  S
C773        C774   1.414       .  A
C773       Br779   1.934       .  S
C774        C775   1.410       .  A
C775        C776   1.410       .  A
C775       Br784   1.930       .  S
C776       Br780   1.928       .  S
C785        C786   1.408       .  A
C785        C790   1.409       .  A
C786        C787   1.404       .  A
C786       Br798   1.932       .  S
C787        C788   1.413       .  A
C787       Br802   1.932       .  S
C788        C789   1.411       .  A
C788        C791   1.489       .  S
C789        C790   1.410       .  A
C789       Br797   1.925       .  S
C790       Br801   1.930       .  S
C791        C792   1.406       .  A
C791        C796   1.401       .  A
C792        C793   1.417       .  A
C792       Br803   1.940       .  S
C793        C794   1.437       .  A
C793       Br799   1.908       .  S
C794        C795   1.419       .  A
C795        C796   1.402       .  A
C795       Br804   1.912       .  S
C796       Br800   1.921       .  S
C805        C806   1.422       .  A
C805        C810   1.429       .  A
C806        C807   1.409       .  A
C806       Br818   1.941       .  S
C807        C808   1.405       .  A
C807       Br822   1.930       .  S
C808        C809   1.403       .  A
C808        C811   1.489       .  S
C809        C810   1.410       .  A
C809       Br817   1.937       .  S
C810       Br821   1.918       .  S
C811        C812   1.404       .  A
C811        C816   1.409       .  A
C812        C813   1.406       .  A
C812       Br823   1.925       .  S
C813        C814   1.420       .  A
C813       Br819   1.935       .  S
C814        C815   1.419       .  A
C815        C816   1.411       .  A
C815       Br824   1.933       .  S
C816       Br820   1.932       .  S
C825        C826   1.411       .  A
C825        C830   1.410       .  A
C826        C827   1.412       .  A
C826       Br838   1.925       .  S
C827        C828   1.412       .  A
C827       Br842   1.929       .  S
C828        C829   1.411       .  A
C828        C831   1.494       .  S
C829        C830   1.405       .  A
C829       Br837   1.925       .  S
C830       Br841   1.930       .  S
C831        C832   1.403       .  A
C831        C836   1.404       .  A
C832        C833   1.412       .  A
C832       Br843   1.932       .  S
C833        C834   1.424       .  A
C833       Br839   1.921       .  S
C834        C835   1.429       .  A
C835        C836   1.413       .  A
C835       Br844   1.912       .  S
C836       Br840   1.940       .  S
C845        C846   1.411       .  A
C845        C850   1.414       .  A
C846        C847   1.410       .  A
C846       Br858   1.925       .  S
C847        C848   1.411       .  A
C847       Br862   1.931       .  S
C848        C849   1.408       .  A
C848        C851   1.490       .  S
C849        C850   1.407       .  A
C849       Br857   1.930       .  S
C850       Br861   1.931       .  S
C851        C852   1.406       .  A
C851        C856   1.404       .  A
C852        C853   1.409       .  A
C852       Br863   1.936       .  S
C853        C854   1.419       .  A
C853       Br859   1.913   1_565  S
C854        C855   1.424       .  A
C855        C856   1.411       .  A
C855       Br864   1.929       .  S
C856       Br860   1.933       .  S
C865        C866   1.425       .  A
C865        C870   1.430       .  A
C866        C867   1.415       .  A
C866       Br878   1.933       .  S
C867        C868   1.407       .  A
C867       Br882   1.931   1_556  S
C868        C869   1.403       .  A
C868        C871   1.493       .  S
C869        C870   1.408       .  A
C869       Br877   1.936       .  S
C870       Br881   1.939       .  S
C871        C872   1.403       .  A
C871        C876   1.403       .  A
C872        C873   1.408       .  A
C872       Br883   1.932       .  S
C873        C874   1.422       .  A
C873       Br879   1.921   1_556  S
C874        C875   1.432       .  A
C875        C876   1.415       .  A
C875       Br884   1.913       .  S
C876       Br880   1.938       .  S
C885        C886   1.424       .  A
C885        C890   1.422   1_556  A
C886        C887   1.413       .  A
C886       Br898   1.914       .  S
C887        C888   1.406       .  A
C887       Br902   1.937       .  S
C888        C889   1.403       .  A
C888        C891   1.494       .  S
C889        C890   1.410   1_556  A
C889       Br897   1.930   1_556  S
C890       Br901   1.926       .  S
C891        C892   1.408       .  A
C891        C896   1.410       .  A
C892        C893   1.412       .  A
C892       Br903   1.928       .  S
C893        C894   1.416       .  A
C893       Br899   1.929       .  S
C894        C895   1.413       .  A
C895        C896   1.407       .  A
C895       Br904   1.935       .  S
C896       Br900   1.924       .  S
C905        C906   1.423   1_554  A
C905        C910   1.421       .  A
C906        C907   1.408       .  A
C906       Br918   1.930       .  S
C907        C908   1.402   1_556  A
C907       Br922   1.931       .  S
C908        C909   1.405       .  A
C908        C911   1.483       .  S
C909        C910   1.407       .  A
C909       Br917   1.939       .  S
C910       Br921   1.915       .  S
C911        C912   1.409       .  A
C911        C916   1.405       .  A
C912        C913   1.409       .  A
C912       Br923   1.929   1_554  S
C913        C914   1.412       .  A
C913       Br919   1.927       .  S
C914        C915   1.415       .  A
C915        C916   1.404       .  A
C915       Br924   1.931       .  S
C916       Br920   1.929       .  S
C925        C926   1.425   1_554  A
C925        C930   1.431       .  A
C926        C927   1.415       .  A
C926       Br938   1.924       .  S
C927        C928   1.405   1_556  A
C927       Br942   1.931       .  S
C928        C929   1.402       .  A
C928        C931   1.496       .  S
C929        C930   1.413       .  A
C929       Br937   1.940       .  S
C930       Br941   1.911       .  S
C931        C932   1.408       .  A
C931        C936   1.412       .  A
C932        C933   1.403       .  A
C932       Br943   1.924       .  S
C933        C934   1.409       .  A
C933       Br939   1.921       .  S
C934        C935   1.414       .  A
C935        C936   1.416       .  A
C935       Br944   1.925       .  S
C936       Br940   1.927       .  S
C945        C946   1.422       .  A
C946        C947   1.410       .  A
C946       Br958   1.922       .  S
C947        C948   1.403   1_455  A
C947       Br962   1.933       .  S
C948        C951   1.492       .  S
C949        C950   1.413       .  A
C949       Br957   1.935       .  S
C950       Br961   1.910       .  S
C951        C952   1.407       .  A
C952        C953   1.412       .  A
C952       Br963   1.930       .  S
C953        C954   1.422       .  A
C953       Br959   1.933       .  S
C955        C956   1.410       .  A
C955       Br964   1.936       .  S
C956       Br960   1.932       .  S
C965        C966   1.410       .  A
C965        C970   1.409       .  A
C966        C967   1.405       .  A
C966       Br978   1.934       .  S
C967        C968   1.412       .  A
C967       Br982   1.926       .  S
C968        C969   1.412       .  A
C968        C971   1.491       .  S
C969        C970   1.409       .  A
C969       Br977   1.926       .  S
C970       Br981   1.930       .  S
C971        C972   1.408       .  A
C971        C976   1.405       .  A
C972        C973   1.411       .  A
C972       Br983   1.932       .  S
C973        C974   1.424       .  A
C973       Br979   1.928       .  S
C974        C975   1.420       .  A
C975        C976   1.406       .  A
C975       Br984   1.930       .  S
C976       Br980   1.930       .  S
C985        C986   1.423       .  A
C985        C990   1.420       .  A
C986        C987   1.405       .  A
C986       Br998   1.937       .  S
C987        C988   1.404       .  A
C987      Br1002   1.928       .  S
C988        C989   1.407       .  A
C988        C991   1.489       .  S
C989        C990   1.412       .  A
C989       Br997   1.929       .  S
C990      Br1001   1.932       .  S
C991        C992   1.404       .  A
C991        C996   1.399       .  A
C992        C993   1.410       .  A
C992      Br1003   1.930       .  S
C993        C994   1.422       .  A
C993       Br999   1.930       .  S
C994        C995   1.433       .  A
C995        C996   1.412       .  A
C995      Br1004   1.911       .  S
C996      Br1000   1.941       .  S
C1005      C1006   1.417       .  A
C1005      C1010   1.413       .  A
C1006      C1007   1.415       .  A
C1006     Br1018   1.929       .  S
C1007      C1008   1.410       .  A
C1007     Br1022   1.929       .  S
C1008      C1009   1.409       .  A
C1008      C1011   1.497       .  S
C1009      C1010   1.406       .  A
C1009     Br1017   1.922       .  S
C1010     Br1021   1.934       .  S
C1011      C1012   1.404       .  A
C1011      C1016   1.405       .  A
C1012      C1013   1.412       .  A
C1012     Br1023   1.932       .  S
C1013      C1014   1.424       .  A
C1013     Br1019   1.924       .  S
C1014      C1015   1.428       .  A
C1015      C1016   1.415       .  A
C1015     Br1024   1.915       .  S
C1016     Br1020   1.937       .  S
C1025      C1026   1.420       .  A
C1025      C1030   1.431       .  A
C1026      C1027   1.403       .  A
C1026     Br1038   1.921       .  S
C1027      C1028   1.401       .  A
C1027     Br1042   1.933       .  S
C1028      C1029   1.401       .  A
C1028      C1031   1.482       .  S
C1029      C1030   1.411       .  A
C1029     Br1037   1.940       .  S
C1030     Br1041   1.913   1_545  S
C1031      C1032   1.403       .  A
C1031      C1036   1.405       .  A
C1032      C1033   1.404       .  A
C1032     Br1043   1.936       .  S
C1033      C1034   1.427       .  A
C1033     Br1039   1.939       .  S
C1034      C1035   1.423       .  A
C1035      C1036   1.409       .  A
C1035     Br1044   1.934       .  S
C1036     Br1040   1.932       .  S
C1045      C1046   1.410   1_455  A
C1046      C1047   1.408       .  A
C1046     Br1058   1.930       .  S
C1047      C1048   1.412   1_655  A
C1047     Br1062   1.930       .  S
C1048      C1051   1.493       .  S
C1049      C1050   1.409       .  A
C1049     Br1057   1.931       .  S
C1050     Br1061   1.935       .  S
C1051      C1056   1.402       .  A
C1052      C1053   1.411       .  A
C1052     Br1063   1.932       .  S
C1053     Br1059   1.925       .  S
C1054      C1055   1.429   1_455  A
C1055      C1056   1.412   1_655  A
C1055     Br1064   1.907       .  S
C1056     Br1060   1.939   1_455  S
C1065      C1066   1.428       .  A
C1065      C1070   1.424       .  A
C1066      C1067   1.409       .  A
C1066     Br1078   1.939       .  S
C1067      C1068   1.405       .  A
C1067     Br1082   1.933       .  S
C1068      C1069   1.407       .  A
C1068      C1071   1.495       .  S
C1069      C1070   1.414       .  A
C1069     Br1077   1.931   1_556  S
C1070     Br1081   1.933       .  S
C1071      C1072   1.402       .  A
C1071      C1076   1.405       .  A
C1072      C1073   1.415       .  A
C1072     Br1083   1.940       .  S
C1073      C1074   1.433       .  A
C1073     Br1079   1.912   1_545  S
C1074      C1075   1.422       .  A
C1075      C1076   1.410       .  A
C1075     Br1084   1.925   1_556  S
C1076     Br1080   1.932   1_556  S
C1085      C1086   1.413       .  A
C1085      C1090   1.410       .  A
C1086      C1087   1.411       .  A
C1086     Br1098   1.929       .  S
C1087      C1088   1.409       .  A
C1087     Br1102   1.930       .  S
C1088      C1089   1.410       .  A
C1088      C1091   1.487       .  S
C1089      C1090   1.403       .  A
C1089     Br1097   1.926       .  S
C1090     Br1101   1.934       .  S
C1091      C1092   1.406       .  A
C1091      C1096   1.400   1_556  A
C1092      C1093   1.412       .  A
C1092     Br1103   1.935       .  S
C1093      C1094   1.424       .  A
C1093     Br1099   1.915       .  S
C1094      C1095   1.422   1_556  A
C1095      C1096   1.404       .  A
C1095     Br1104   1.921       .  S
C1096     Br1100   1.932       .  S
C1105      C1110   1.425       .  A
C1106      C1107   1.407       .  A
C1106     Br1118   1.925   1_545  S
C1107     Br1122   1.932       .  S
C1108      C1109   1.401       .  A
C1108      C1111   1.485       .  S
C1109      C1110   1.406       .  A
C1109     Br1117   1.937       .  S
C1110     Br1121   1.908       .  S
C1111      C1112   1.411       .  A
C1112      C1113   1.405       .  A
C1112     Br1123   1.932       .  S
C1113      C1114   1.409       .  A
C1113     Br1119   1.929       .  S
C1115      C1116   1.405       .  A
C1115     Br1124   1.934       .  S
C1116     Br1120   1.934       .  S
C1125      C1126   1.420       .  A
C1125      C1130   1.422       .  A
C1126      C1127   1.407       .  A
C1126     Br1138   1.911   1_565  S
C1127      C1128   1.404       .  A
C1127     Br1142   1.938       .  S
C1128      C1129   1.401       .  A
C1128      C1131   1.479       .  S
C1129      C1130   1.406       .  A
C1129     Br1137   1.934       .  S
C1130     Br1141   1.925   1_554  S
C1131      C1132   1.407       .  A
C1131      C1136   1.407       .  A
C1132      C1133   1.405       .  A
C1132     Br1143   1.931       .  S
C1133      C1134   1.416       .  A
C1133     Br1139   1.935       .  S
C1134      C1135   1.411       .  A
C1135      C1136   1.404       .  A
C1135     Br1144   1.926       .  S
C1136     Br1140   1.931       .  S
C1145      C1146   1.425       .  A
C1145      C1150   1.422       .  A
C1146      C1147   1.403       .  A
C1146     Br1158   1.938       .  S
C1147      C1148   1.408       .  A
C1147     Br1162   1.935       .  S
C1148      C1149   1.410       .  A
C1148      C1151   1.494       .  S
C1149      C1150   1.415       .  A
C1149     Br1157   1.931   1_554  S
C1150     Br1161   1.932       .  S
C1151      C1152   1.405       .  A
C1151      C1156   1.403       .  A
C1152      C1153   1.413       .  A
C1152     Br1163   1.933   1_554  S
C1153      C1154   1.424       .  A
C1153     Br1159   1.922   1_554  S
C1154      C1155   1.424       .  A
C1155      C1156   1.408       .  A
C1155     Br1164   1.912   1_565  S
C1156     Br1160   1.935       .  S
C1165      C1170   1.421       .  A
C1166      C1167   1.408       .  A
C1166     Br1178   1.935       .  S
C1167     Br1182   1.931       .  S
C1168      C1169   1.406       .  A
C1168      C1171   1.490       .  S
C1169      C1170   1.411       .  A
C1169     Br1177   1.927       .  S
C1170     Br1181   1.933       .  S
C1171      C1172   1.406       .  A
C1172      C1173   1.412       .  A
C1172     Br1183   1.936       .  S
C1173      C1174   1.422       .  A
C1173     Br1179   1.913       .  S
C1175      C1176   1.410       .  A
C1175     Br1184   1.921   1_465  S
C1176     Br1180   1.932   1_455  S
