geometry optimzed in LAMMPS
_audit_creation_date              2020-11-30 
_audit_creation_method            'lammps2cif' 
_symmetry_space_group_name_H-M    'P1' 
_symmetry_Int_Tables_number       1 
_symmetry_cell_setting            triclinic 
loop_ 
_symmetry_equiv_pos_as_xyz 
  x,y,z 
_cell_length_a                    36.780084120091956 
_cell_length_b                    36.62214354373353 
_cell_length_c                    47.46538130144971 
_cell_angle_alpha                 90.86401210181309 
_cell_angle_beta                  89.36823546072483 
_cell_angle_gamma                 120.57993418045936 
loop_ 
_atom_site_label 
_atom_site_type_symbol 
_atom_site_fract_x 
_atom_site_fract_y 
_atom_site_fract_z 
_atom_site_charge 
C1          C  0.33352569  0.17327405  0.00284831    -0.03020
C2          C  0.33081409  0.16284735  0.12978637    -0.03020
C3          C  0.16379942  0.34418511  0.38315724    -0.03020
C4          C  0.16129741  0.33811766  0.25554206    -0.03020
C5          C  0.42928474  0.08852917  0.47431437     0.41920
N6          N  0.44281729  0.03801484  0.47469968     0.00810
C7          C  0.13687792  0.05677782  0.44653200    -0.07070
H8          H  0.09308674  0.12839131  0.37475562     0.06300
C9          C  0.46543080  0.47804404  0.34914077    -0.07420
Co10       Co  0.03557737  0.06949569  0.47281386     0.74180
N11         N  0.06485682  0.09605561  0.41353294    -0.26590
Co12       Co  0.05985293  0.03727565  0.40954350     0.74070
C13         C  0.49677954  0.01274083  0.33195017     0.42020
N14         N  0.40765390  0.44983281  0.41374941     0.00430
N15         N  0.01975338  0.02052124  0.37446280     0.00530
N16         N  0.12139599  0.07843637  0.48729665    -0.47440
H17         H  0.50026717  0.13921874  0.47407455     0.06290
N18         N  0.05613999  0.10837572  0.43766329     0.00820
N19         N  0.05415947  0.47820392  0.40710112     0.00560
C20         C  0.06719511  0.42792901  0.40382493     0.42160
N21         N  0.39884063  0.46250665  0.43768408    -0.26050
C22         C  0.03050387  0.03508581  0.03383256    -0.06970
N23         N  0.41146022  0.04595503  0.47476463    -0.47160
N24         N  0.08547176  0.47044082  0.40503370    -0.47380
C25         C  0.49857970  0.49944808  0.05033124     0.41940
N26         N  0.08992290  0.06480251  0.46903998     0.00810
N27         N  0.43272931  0.42002833  0.46894243    -0.26070
N28         N  0.48038598  0.07276222  0.47461327    -0.26570
N29         N  0.44285041  0.40782859  0.44535871     0.00440
H30         H  0.40338295  0.38853347  0.00718603     0.06330
H31         H  0.99656180  0.37692385  0.40553767     0.06370
N32         N  0.09872515  0.05281812  0.44477873    -0.26610
N33         N  0.48245251  0.48535796  0.37493851    -0.26230
N34         N  0.47635160  0.49472117  0.00790792     0.00810
C35         C  0.08291727  0.16364765  0.41192190     0.42210
C36         C  0.36030204  0.45731280  0.43608980    -0.07480
N37         N  0.01671550  0.44339618  0.40744586    -0.26230
H38         H  0.43640526  0.45000179  0.34269664     0.06350
N39         N  0.06659837  0.14861876  0.43758961    -0.47450
H40         H  0.34336734  0.46192760  0.45321165     0.06340
C41         C  0.41985513  0.35402925  0.47238231     0.42040
C42         C  0.47512536  0.10641582  0.47459394    -0.06980
Co43       Co  0.43714791  0.47859002  0.47269512     0.73820
N44         N  0.37592815  0.43459418  0.39568924    -0.47170
C45         C  0.15165522  0.07295777  0.47488282     0.42310
N46         N  0.46571915  0.47610620  0.03288607    -0.47160
Co47       Co  0.46197965  0.44602862  0.41003137     0.73890
C48         C  0.02167874  0.40975541  0.40567502    -0.07480
C49         C  0.08130523  0.12865644  0.39567516    -0.07050
N50         N  0.01392400  0.02952100  0.00793429    -0.26570
N51         N  0.02987800  0.03753973  0.34897729    -0.47340
H52         H  0.15354736  0.05182650  0.42938232     0.06310
C53         C  0.41708165  0.38803506  0.48708506    -0.07460
Cl54       Cl  0.49870001  0.00795693  0.44126947    -0.50460
C55         C  0.34555039  0.43953829  0.40817976     0.42070
H56         H  0.05994804  0.06218346  0.04075245     0.06280
N57         N  0.43537144  0.36853170  0.44643083    -0.47170
C58         C  0.34436543  0.43130826  0.22754768     0.41920
N59         N  0.39643268  0.44946908  0.19895704     0.00810
C60         C  0.09472043  0.47817603  0.22215169    -0.07070
H61         H  0.06157666  0.07204826  0.28838134     0.06300
C62         C  0.05015409  0.14276058  0.19204455    -0.07420
Co63       Co  0.46783020  0.44469002  0.22480203     0.74180
N64         N  0.02395441  0.02459985  0.25700549    -0.26590
Co65       Co  0.06097690  0.04171903  0.22034133     0.74070
C66         C  0.06924013  0.16063212  0.21906140     0.42020
N67         N  0.46793366  0.05789544  0.15784682     0.00430
N68         N  0.05837041  0.09733009  0.21574282     0.00530
N69         N  0.03322324  0.41594143  0.22599971    -0.47440
H70         H  0.37942956  0.41995154  0.26327675     0.06290
N71         N  0.48812338  0.48799233  0.25854997     0.00820
N72         N  0.09721341  0.05809143  0.18394409     0.00560
C73         C  0.15029693  0.08228393  0.15639169     0.42160
N74         N  0.43224001  0.02128951  0.15931192    -0.26050
C75         C  0.44157489  0.36260266  0.19122011    -0.06970
N76         N  0.35759208  0.44297349  0.20081327    -0.47160
N77         N  0.13729667  0.06872273  0.18275875    -0.47380
C78         C  0.42279033  0.34473944  0.16400334     0.41940
N79         N  0.02665347  0.44828709  0.22484675     0.00810
N80         N  0.47047131  0.48217646  0.12533677    -0.26070
N81         N  0.40960386  0.44205777  0.22281593    -0.26570
N82         N  0.00637003  0.01884911  0.12433655     0.00440
H83         H  0.43293183  0.43694637  0.09277986     0.06330
H84         H  0.11458221  0.09193935  0.12053479     0.06370
N85         N  0.06213858  0.48516679  0.22283182    -0.26610
N86         N  0.04473599  0.10382043  0.19177961    -0.26230
N87         N  0.43508268  0.40877200  0.16708719     0.00810
C88         C  0.49817876  0.01347083  0.30080259     0.42210
C89         C  0.40019314  0.02892485  0.15972102    -0.07480
N90         N  0.08369924  0.06509333  0.16011909    -0.26230
H91         H  0.04438088  0.15775878  0.17458614     0.06350
N92         N  0.47201145  0.47994153  0.28438636    -0.47450
H93         H  0.36705970  0.00506912  0.16100224     0.06340
C94         C  0.49682603  0.49598076  0.08144370     0.42040
C95         C  0.37869101  0.43003652  0.24209447    -0.06980
Co96       Co  0.43287398  0.46472994  0.16217749     0.73820
N97         N  0.46232076  0.09073654  0.15737565    -0.47170
C98         C  0.07535603  0.43209519  0.22370965     0.42310
N99         N  0.41915451  0.37491047  0.15018178    -0.47160
Co100      Co  0.02580498  0.06150271  0.15818044     0.73890
C101        C  0.11517169  0.08023852  0.14121205    -0.07480
C102        C  0.03287180  0.04311351  0.28269028    -0.07050
N103        N  0.44796137  0.40194229  0.19127585    -0.26570
N104        N  0.07464693  0.13133541  0.23248738    -0.47340
H105        H  0.12776861  0.50226975  0.22073905     0.06450
C106        C  0.46182497  0.46521349  0.09912236    -0.07460
Cl107      Cl  0.49687101  0.00307596  0.19135535    -0.50460
C108        C  0.42044781  0.07526848  0.15850392     0.42070
H109        H  0.44725750  0.34766997  0.20876394     0.06280
N110        N  0.02273371  0.02836206  0.09862387    -0.47170
C111        C  0.09128855  0.20613145  0.22593392    -0.06660
C112        C  0.13315777  0.23161493  0.21710994    -0.17790
C113        C  0.15515282  0.27563258  0.22174680     0.10540
C114        C  0.13709001  0.29407936  0.23977299    -0.06590
C115        C  0.09269591  0.26900361  0.24381059    -0.17820
C116        C  0.06987757  0.22565336  0.23720575     0.10570
S117        S  0.20154339  0.30451302  0.19996014    -0.32790
S118        S  0.01410045  0.19681839  0.24519575    -0.32790
H119        H  0.01089769  0.15771759  0.25080862     0.28580
H120        H  0.19395553  0.33738989  0.19401024     0.28570
H121        H  0.14798808  0.21735697  0.20497542     0.19170
H122        H  0.07564373  0.28189773  0.25429056     0.19170
C123        C  0.13638633  0.36162463  0.24731797    -0.06660
C124        C  0.13983365  0.37660910  0.21944947    -0.17790
C125        C  0.12137794  0.40033434  0.21108574     0.10540
C126        C  0.09641873  0.40786946  0.23035340    -0.06590
C127        C  0.08857118  0.38939970  0.25673148    -0.17820
C128        C  0.10565565  0.36471795  0.26501535     0.10570
S129        S  0.13079702  0.41982150  0.17550882    -0.32790
S130        S  0.08107611  0.33387577  0.29641785    -0.32790
H131        H  0.04231823  0.33265937  0.29446185     0.28580
H132        H  0.09382233  0.42178493  0.17282156     0.28570
H133        H  0.15836946  0.37103623  0.20408864     0.19170
H134        H  0.06761292  0.39350648  0.27093684     0.19170
C135        C  0.29948405  0.41118825  0.23649701    -0.06660
C136        C  0.28172210  0.37282833  0.25066089    -0.17790
C137        C  0.23834557  0.34891903  0.25664359     0.10540
C138        C  0.21041256  0.36379297  0.24869618    -0.06590
C139        C  0.23035528  0.40509455  0.23703192    -0.17820
C140        C  0.27349859  0.42779094  0.22999597     0.10570
S141        S  0.22081313  0.29890185  0.27367875    -0.32790
S142        S  0.29363539  0.47860398  0.21351019    -0.32790
H143        H  0.33443194  0.99743767  0.22496345     0.28580
H144        H  0.25583866  0.29455238  0.26718608     0.28570
H145        H  0.30197747  0.36062995  0.25625121     0.19170
H146        H  0.21338705  0.42144830  0.23392309     0.19170
C147        C  0.10450661  0.20912517  0.40525187    -0.06660
C148        C  0.08721659  0.23247988  0.41641196    -0.17790
C149        C  0.10615961  0.27625715  0.41243444     0.10540
C150        C  0.14273101  0.29757477  0.39449796    -0.06590
C151        C  0.16148279  0.27364078  0.38547152    -0.17820
C152        C  0.14320749  0.23046204  0.39067540     0.10570
S153        S  0.08575732  0.30223182  0.43492693    -0.32790
S154        S  0.17255609  0.20563842  0.37951597    -0.32790
H155        H  0.16572507  0.18330850  0.40475374     0.28580
H156        H  0.04442219  0.26747287  0.43772747     0.28570
H157        H  0.05918429  0.21628894  0.42946696     0.19170
H158        H  0.19046827  0.28892863  0.37325886     0.19170
C159        C  0.13820277  0.36517830  0.39258629    -0.06660
C160        C  0.09895935  0.35015426  0.37880560    -0.17790
C161        C  0.07628756  0.37087615  0.38120335     0.10540
C162        C  0.09039148  0.40555754  0.39979002    -0.06590
C163        C  0.12694723  0.41879468  0.41558574    -0.17820
C164        C  0.15077585  0.39881534  0.41285828     0.10570
S165        S  0.03213449  0.35395313  0.35779046    -0.32790
S166        S  0.19223335  0.41355055  0.43847083    -0.32790
H167        H  0.19298315  0.44956581  0.44992118     0.28580
H168        H  0.04191863  0.39535216  0.35123260     0.28570
H169        H  0.08690568  0.32313316  0.36457294     0.19170
H170        H  0.13607270  0.44431931  0.43078322     0.19170
C171        C  0.21166023  0.36963971  0.39265458    -0.06660
C172        C  0.23864212  0.41025967  0.38124998    -0.17790
C173        C  0.28221609  0.43281824  0.38489480     0.10540
C174        C  0.30101901  0.41500559  0.40056461    -0.06590
C175        C  0.27557166  0.37662763  0.41415403    -0.17820
C176        C  0.23151332  0.35544610  0.41227099     0.10570
S177        S  0.31158623  0.48570942  0.37075972    -0.32790
S178        S  0.20548341  0.31782706  0.44036987    -0.32790
H179        H  0.17562675  0.32997824  0.44600312     0.28580
H180        H  0.34985075  0.48644028  0.36668234     0.28570
H181        H  0.22647343  0.42666829  0.37071181     0.19170
H182        H  0.29012563  0.36515587  0.42858026     0.19170
C183        C  0.16145268  0.33544967  0.28839120    -0.06660
C184        C  0.17920993  0.37495558  0.30264808    -0.17790
C185        C  0.17435529  0.37853490  0.33161990     0.10540
C186        C  0.16191187  0.34264323  0.34938055    -0.06590
C187        C  0.14182547  0.30313255  0.33478922    -0.17820
C188        C  0.14307787  0.29854489  0.30562109     0.10570
S189        S  0.17060625  0.42471707  0.34178706    -0.32790
S190        S  0.12359987  0.24447704  0.29380325    -0.32790
H191        H  0.09020687  0.22459983  0.31331026     0.28580
H192        H  0.16460048  0.43613519  0.31479116     0.28570
H193        H  0.19192598  0.40349420  0.29024845     0.19170
H194        H  0.12235374  0.27411494  0.34576686     0.19170
C195        C  0.28230176  0.14115776  0.13670086    -0.06660
C196        C  0.26605187  0.16379535  0.15153546    -0.17790
C197        C  0.22320467  0.14585304  0.15782032     0.10540
C198        C  0.19452682  0.10486141  0.14793423    -0.06590
C199        C  0.20858211  0.08327189  0.13113398    -0.17820
C200        C  0.25142358  0.10052919  0.12501329     0.10570
S201        S  0.20730433  0.17697112  0.17881608    -0.32790
S202        S  0.26398905  0.06723517  0.10362843    -0.32790
H203        H  0.22476856  0.04402270  0.08994927     0.28580
H204        H  0.16647786  0.15936534  0.16766860     0.28570
H205        H  0.28590793  0.19616457  0.15826523     0.19170
H206        H  0.18578212  0.05167314  0.12366004     0.19170
C207        C  0.35678138  0.21135258  0.13965000    -0.06660
C208        C  0.38129780  0.24409784  0.11996877    -0.17790
C209        C  0.40460881  0.28702038  0.12773556     0.10540
C210        C  0.40283172  0.29946758  0.15546847    -0.06590
C211        C  0.38252263  0.26800680  0.17577950    -0.17820
C212        C  0.36171125  0.22460828  0.16862524     0.10570
S213        S  0.43983389  0.32424041  0.10209548    -0.32790
S214        S  0.34180794  0.18756561  0.19733062    -0.32790
H215        H  0.36378908  0.21667058  0.21923458     0.28580
H216        H  0.47157915  0.35053884  0.12134946     0.28570
H217        H  0.38504972  0.23695562  0.09837234     0.19170
H218        H  0.38283665  0.27749180  0.19751753     0.19170
C219        C  0.39994530  0.10110589  0.15691018    -0.06660
C220        C  0.35735395  0.08234190  0.16438380    -0.17790
C221        C  0.33400528  0.10222307  0.15972693     0.10540
C222        C  0.35305023  0.14121062  0.14415356    -0.06590
C223        C  0.39765026  0.16259032  0.14129033    -0.17820
C224        C  0.42102117  0.14336739  0.14741449     0.10570
S225        S  0.28184103  0.07391408  0.17540657    -0.32790
S226        S  0.47646121  0.17306429  0.13887294    -0.32790
H227        H  0.47269446  0.14415015  0.11759504     0.28580
H228        H  0.27996151  0.10889430  0.18546298     0.28570
H229        H  0.34181786  0.05147785  0.17412450     0.19170
H230        H  0.41443188  0.19318295  0.13122750     0.19170
C231        C  0.28595128  0.14842576  0.49255224    -0.06660
C232        C  0.26076951  0.10603128  0.00232418    -0.17790
C233        C  0.21714661  0.08136104  0.99789304     0.10540
C234        C  0.19669491  0.09800469  0.48250036    -0.06590
C235        C  0.22022306  0.13900164  0.47211422    -0.17820
C236        C  0.26359756  0.16479473  0.47716765     0.10570
S237        S  0.18949289  0.02865071  0.01226237    -0.32790
S238        S  0.28436974  0.21721049  0.46295662    -0.32790
H239        H  0.29475034  0.23851886  0.48899549     0.28580
H240        H  0.15020088  0.02599693  0.01561225     0.28570
H241        H  0.27532933  0.09191497  0.01427960     0.19170
H242        H  0.20406324  0.15142529  0.46005229     0.19170
C243        C  0.40247075  0.30941276  0.48097578    -0.06660
C244        C  0.39435647  0.27866694  0.46017380    -0.17790
C245        C  0.37306223  0.23526977  0.46626504     0.10540
C246        C  0.35795620  0.22111733  0.49436909    -0.06590
C247        C  0.37099994  0.25340816  0.01530782    -0.17820
C248        C  0.39265980  0.29636989  0.00905793     0.10570
S249        S  0.36589010  0.20116801  0.43626648    -0.32790
S250        S  0.40945856  0.33254706  0.03855092    -0.32790
H251        H  0.44994399  0.35981976  0.02738107     0.28580
H252        H  0.32491072  0.16890143  0.44278568     0.28570
H253        H  0.40345704  0.28832539  0.43854501     0.19170
H254        H  0.36702859  0.24649304  0.03738159     0.19170
C255        C  0.36083012  0.15443739  0.49072474    -0.06660
C256        C  0.34213360  0.11614054  0.47474835    -0.17790
C257        C  0.36377898  0.09474053  0.46811208     0.10540
C258        C  0.40598019  0.11176072  0.47687025    -0.06590
C259        C  0.42643075  0.15177083  0.48970185    -0.17820
C260        C  0.40520886  0.17325328  0.99671065     0.10570
S261        S  0.33568893  0.04620748  0.44786262    -0.32790
S262        S  0.43835675  0.22402759  0.01380351    -0.32790
H263        H  0.41508977  0.21522897  0.03883021     0.28580
H264        H  0.37093572  0.05344428  0.43161799     0.28570
H265        H  0.31028789  0.10202464  0.46702724     0.19170
H266        H  0.45922454  0.16592757  0.99575932     0.19170
C267        C  0.32993472  0.16712822  0.03594022    -0.06660
C268        C  0.34649515  0.14438779  0.04922512    -0.17790
C269        C  0.34896984  0.14187457  0.07837166     0.10540
C270        C  0.33167108  0.16092770  0.09659707    -0.06590
C271        C  0.31014232  0.17869122  0.08305533    -0.17820
C272        C  0.30719496  0.18015757  0.05384694     0.10570
S273        S  0.37434553  0.11246287  0.08769585    -0.32790
S274        S  0.27576492  0.20139956  0.04088533    -0.32790
H275        H  0.25130915  0.19476462  0.06535600     0.28580
H276        H  0.34253886  0.08271050  0.10506051     0.28570
H277        H  0.35789106  0.12724378  0.03698028     0.19170
H278        H  0.29582311  0.19273096  0.09586558     0.19170
C279        C  0.33352571  0.17327404  0.50284831    -0.03020
C280        C  0.33081409  0.16284734  0.62978637    -0.03020
C281        C  0.16379940  0.34418510  0.88315724    -0.03020
C282        C  0.16129744  0.33811767  0.75554205    -0.03020
C283        C  0.42928472  0.08852919  0.97431435     0.41920
N284        N  0.44281727  0.03801486  0.97469966     0.00810
C285        C  0.13687789  0.05677781  0.94653202    -0.07070
H286        H  0.09308671  0.12839127  0.87475561     0.06300
C287        C  0.46543080  0.47804404  0.84914077    -0.07420
Co288      Co  0.03557734  0.06949570  0.97281385     0.74180
N289        N  0.06485680  0.09605559  0.91353293    -0.26590
Co290      Co  0.05985290  0.03727563  0.90954351     0.74070
C291        C  0.49677953  0.01274081  0.83195018     0.42020
N292        N  0.40765387  0.44983281  0.91374939     0.00430
N293        N  0.01975336  0.02052121  0.87446281     0.00530
N294        N  0.12139596  0.07843638  0.98729666    -0.47440
H295        H  0.50026715  0.13921876  0.97407453     0.06290
N296        N  0.05613996  0.10837572  0.93766327     0.00820
N297        N  0.05415944  0.47820392  0.90710113     0.00560
C298        C  0.06719509  0.42792902  0.90382497     0.42160
N299        N  0.39884059  0.46250667  0.93768406    -0.26050
C300        C  0.03050390  0.03508580  0.53383257    -0.06970
N301        N  0.41146020  0.04595505  0.97476461    -0.47160
N302        N  0.08547174  0.47044083  0.90503373    -0.47380
C303        C  0.49857976  0.49944809  0.55033125     0.41940
N304        N  0.08992287  0.06480251  0.96903999     0.00810
N305        N  0.43272925  0.42002833  0.96894242    -0.26070
N306        N  0.48038596  0.07276223  0.97461325    -0.26570
N307        N  0.44285036  0.40782859  0.94535870     0.00440
H308        H  0.40338300  0.38853347  0.50718603     0.06330
H309        H  0.99656178  0.37692385  0.90553767     0.06370
N310        N  0.09872512  0.05281811  0.94477874    -0.26610
N311        N  0.48245250  0.48535796  0.87493850    -0.26230
N312        N  0.47635165  0.49472117  0.50790792     0.00810
C313        C  0.08291724  0.16364763  0.91192188     0.42210
C314        C  0.36030201  0.45731286  0.93608976    -0.07480
N315        N  0.01671547  0.44339617  0.90744586    -0.26230
H316        H  0.43640526  0.45000179  0.84269663     0.06350
N317        N  0.06659834  0.14861876  0.93758959    -0.47450
H318        H  0.34336732  0.46192768  0.95321160     0.06340
C319        C  0.41985508  0.35402925  0.97238230     0.42040
C320        C  0.47512534  0.10641584  0.97459393    -0.06980
Co321      Co  0.43714786  0.47859003  0.97269511     0.73820
N322        N  0.37592812  0.43459420  0.89568922    -0.47170
C323        C  0.15165519  0.07295778  0.97488283     0.42310
N324        N  0.46571921  0.47610621  0.53288608    -0.47160
Co325      Co  0.46197962  0.44602862  0.91003136     0.73890
C326        C  0.02167872  0.40975541  0.90567503    -0.07480
C327        C  0.08130520  0.12865641  0.89567514    -0.07050
N328        N  0.01392403  0.02952098  0.50793429    -0.26570
N329        N  0.02987799  0.03753971  0.84897730    -0.47340
H330        H  0.15354733  0.05182648  0.92938235     0.06310
C331        C  0.41708159  0.38803506  0.98708505    -0.07460
Cl332      Cl  0.49869998  0.00795693  0.94126948    -0.50460
C333        C  0.34555037  0.43953834  0.90817971     0.42070
H334        H  0.05994806  0.06218346  0.54075246     0.06280
N335        N  0.43537140  0.36853170  0.94643083    -0.47170
C336        C  0.34436545  0.43130825  0.72754767     0.41920
N337        N  0.39643271  0.44946907  0.69895703     0.00810
C338        C  0.09472046  0.47817604  0.72215168    -0.07070
H339        H  0.06157664  0.07204825  0.78838135     0.06300
C340        C  0.05015407  0.14276058  0.69204455    -0.07420
Co341      Co  0.46783023  0.44469003  0.72480203     0.74180
N342        N  0.02395440  0.02459985  0.75700550    -0.26590
Co343      Co  0.06097689  0.04171903  0.72034133     0.74070
C344        C  0.06924011  0.16063212  0.71906141     0.42020
N345        N  0.46793366  0.05789544  0.65784683     0.00430
N346        N  0.05837040  0.09733009  0.71574283     0.00530
N347        N  0.03322327  0.41594144  0.72599971    -0.47440
H348        H  0.37942958  0.41995153  0.76327674     0.06290
N349        N  0.48812341  0.48799233  0.75854996     0.00820
N350        N  0.09721340  0.05809144  0.68394410     0.00560
C351        C  0.15029694  0.08228393  0.65639170     0.42160
N352        N  0.43224000  0.02128950  0.65931192    -0.26050
C353        C  0.44157492  0.36260266  0.69122010    -0.06970
N354        N  0.35759211  0.44297348  0.70081326    -0.47160
N355        N  0.13729667  0.06872274  0.68275876    -0.47380
C356        C  0.42279035  0.34473945  0.66400334     0.41940
N357        N  0.02665351  0.44828710  0.72484675     0.00810
N358        N  0.47047135  0.48217647  0.62533676    -0.26070
N359        N  0.40960388  0.44205777  0.72281592    -0.26570
N360        N  0.00637003  0.01884911  0.62433656     0.00440
H361        H  0.43293188  0.43694638  0.59277985     0.06330
H362        H  0.11458221  0.09193935  0.62053480     0.06370
N363        N  0.06213861  0.48516681  0.72283181    -0.26610
N364        N  0.04473598  0.10382043  0.69177961    -0.26230
N365        N  0.43508271  0.40877200  0.66708718     0.00810
C366        C  0.49817874  0.01347081  0.80080260     0.42210
C367        C  0.40019314  0.02892485  0.65972102    -0.07480
N368        N  0.08369924  0.06509333  0.66011910    -0.26230
H369        H  0.04438086  0.15775878  0.67458615     0.06350
N370        N  0.47201147  0.47994152  0.78438635    -0.47450
H371        H  0.36705970  0.00506911  0.66100224     0.06340
C372        C  0.49682608  0.49598078  0.58144371     0.42040
C373        C  0.37869103  0.43003652  0.74209446    -0.06980
Co374      Co  0.43287401  0.46472994  0.66217749     0.73820
N375        N  0.46232075  0.09073654  0.65737565    -0.47170
C376        C  0.07535607  0.43209521  0.72370964     0.42310
N377        N  0.41915454  0.37491047  0.65018178    -0.47160
Co378      Co  0.02580498  0.06150271  0.65818044     0.73890
C379        C  0.11517169  0.08023853  0.64121206    -0.07480
C380        C  0.03287179  0.04311350  0.78269029    -0.07050
N381        N  0.44796140  0.40194229  0.69127584    -0.26570
N382        N  0.07464691  0.13133541  0.73248739    -0.47340
H383        H  0.12776864  0.50226977  0.72073905     0.06450
C384        C  0.46182501  0.46521350  0.59912236    -0.07460
Cl385      Cl  0.49687101  0.00307596  0.69135535    -0.50460
C386        C  0.42044780  0.07526847  0.65850392     0.42070
H387        H  0.44725752  0.34766997  0.70876393     0.06280
N388        N  0.02273372  0.02836206  0.59862388    -0.47170
C389        C  0.09128853  0.20613146  0.72593392    -0.06660
C390        C  0.13315775  0.23161492  0.71710994    -0.17790
C391        C  0.15515282  0.27563257  0.72174679     0.10540
C392        C  0.13709002  0.29407936  0.73977299    -0.06590
C393        C  0.09269592  0.26900362  0.74381060    -0.17820
C394        C  0.06987757  0.22565337  0.73720576     0.10570
S395        S  0.20154339  0.30451300  0.69996012    -0.32790
S396        S  0.01410045  0.19681842  0.74519577    -0.32790
H397        H  0.01089768  0.15771761  0.75080863     0.28580
H398        H  0.19395553  0.33738987  0.69401022     0.28570
H399        H  0.14798805  0.21735695  0.70497541     0.19170
H400        H  0.07564376  0.28189776  0.75429057     0.19170
C401        C  0.13638638  0.36162465  0.74731797    -0.06660
C402        C  0.13983367  0.37660910  0.71944947    -0.17790
C403        C  0.12137796  0.40033434  0.71108573     0.10540
C404        C  0.09641877  0.40786949  0.73035340    -0.06590
C405        C  0.08857125  0.38939975  0.75673149    -0.17820
C406        C  0.10565572  0.36471800  0.76501536     0.10570
S407        S  0.13079700  0.41982146  0.67550880    -0.32790
S408        S  0.08107620  0.33387584  0.79641786    -0.32790
H409        H  0.04231828  0.33265937  0.79446182     0.28580
H410        H  0.09382232  0.42178490  0.67282156     0.28570
H411        H  0.15836946  0.37103622  0.70408863     0.19170
H412        H  0.06761300  0.39350654  0.77093686     0.19170
C413        C  0.29948408  0.41118824  0.73649700    -0.06660
C414        C  0.28172212  0.37282832  0.75066087    -0.17790
C415        C  0.23834559  0.34891902  0.75664357     0.10540
C416        C  0.21041259  0.36379296  0.74869616    -0.06590
C417        C  0.23035531  0.40509454  0.73703190    -0.17820
C418        C  0.27349862  0.42779093  0.72999595     0.10570
S419        S  0.22081314  0.29890183  0.77367873    -0.32790
S420        S  0.29363542  0.47860397  0.71351017    -0.32790
H421        H  0.33443194  0.99743767  0.72496345     0.28580
H422        H  0.25583867  0.29455236  0.76718606     0.28570
H423        H  0.30197749  0.36062993  0.75625119     0.19170
H424        H  0.21338708  0.42144830  0.73392307     0.19170
C425        C  0.10450656  0.20912514  0.90525183    -0.06660
C426        C  0.08721653  0.23247984  0.91641192    -0.17790
C427        C  0.10615953  0.27625712  0.91243439     0.10540
C428        C  0.14273096  0.29757476  0.89449794    -0.06590
C429        C  0.16148272  0.27364075  0.88547148    -0.17820
C430        C  0.14320744  0.23046202  0.89067536     0.10570
S431        S  0.08575717  0.30223175  0.93492685    -0.32790
S432        S  0.17255603  0.20563840  0.87951592    -0.32790
H433        H  0.16572505  0.18330850  0.90475370     0.28580
H434        H  0.04442202  0.26747279  0.93772731     0.28570
H435        H  0.05918422  0.21628890  0.92946691     0.19170
H436        H  0.19046820  0.28892861  0.87325882     0.19170
C437        C  0.13820272  0.36517829  0.89258628    -0.06660
C438        C  0.09895937  0.35015435  0.87880553    -0.17790
C439        C  0.07628761  0.37087626  0.88120328     0.10540
C440        C  0.09039146  0.40555756  0.89979003    -0.06590
C441        C  0.12694714  0.41879458  0.91558582    -0.17820
C442        C  0.15077572  0.39881520  0.91285836     0.10570
S443        S  0.03213464  0.35395341  0.85779032    -0.32790
S444        S  0.19223301  0.41355012  0.93847103    -0.32790
H445        H  0.19298273  0.44956527  0.94992152     0.28580
H446        H  0.04191883  0.39535249  0.85123257     0.28570
H447        H  0.08690574  0.32313331  0.86457280     0.19170
H448        H  0.13607255  0.44431913  0.93078336     0.19170
C449        C  0.21166018  0.36963972  0.89265462    -0.06660
C450        C  0.23864202  0.41025979  0.88125020    -0.17790
C451        C  0.28221598  0.43281841  0.88489496     0.10540
C452        C  0.30101899  0.41500564  0.90056457    -0.06590
C453        C  0.27557170  0.37662756  0.91415388    -0.17820
C454        C  0.23151335  0.35544601  0.91227090     0.10570
S455        S  0.31158601  0.48570973  0.87076011    -0.32790
S456        S  0.20548354  0.31782688  0.94036974    -0.32790
H457        H  0.17562678  0.32997791  0.94600306     0.28580
H458        H  0.34985058  0.48644073  0.86668261     0.28570
H459        H  0.22647304  0.42666865  0.87071213     0.19170
H460        H  0.29012573  0.36515572  0.92858000     0.19170
C461        C  0.16145274  0.33544969  0.78839120    -0.06660
C462        C  0.17921004  0.37495561  0.80264808    -0.17790
C463        C  0.17435542  0.37853495  0.83161990     0.10540
C464        C  0.16191191  0.34264326  0.84938055    -0.06590
C465        C  0.14182546  0.30313258  0.83478921    -0.17820
C466        C  0.14307790  0.29854492  0.80562109     0.10570
S467        S  0.17060639  0.42471713  0.84178703    -0.32790
S468        S  0.12359989  0.24447706  0.79380325    -0.32790
H469        H  0.09020688  0.22459986  0.81331025     0.28580
H470        H  0.16460060  0.43613521  0.81479112     0.28570
H471        H  0.19192612  0.40349422  0.79024844     0.19170
H472        H  0.12235367  0.27411498  0.84576685     0.19170
C473        C  0.28230176  0.14115776  0.63670086    -0.06660
C474        C  0.26605187  0.16379536  0.65153546    -0.17790
C475        C  0.22320467  0.14585305  0.65782032     0.10540
C476        C  0.19452682  0.10486142  0.64793424    -0.06590
C477        C  0.20858211  0.08327189  0.63113399    -0.17820
C478        C  0.25142357  0.10052919  0.62501329     0.10570
S479        S  0.20730434  0.17697113  0.67881608    -0.32790
S480        S  0.26398904  0.06723517  0.60362843    -0.32790
H481        H  0.22476855  0.04402269  0.58994928     0.28580
H482        H  0.16647787  0.15936535  0.66766860     0.28570
H483        H  0.28590793  0.19616458  0.65826522     0.19170
H484        H  0.18578212  0.05167314  0.62366005     0.19170
C485        C  0.35678138  0.21135258  0.63965000    -0.06660
C486        C  0.38129781  0.24409784  0.61996876    -0.17790
C487        C  0.40460882  0.28702037  0.62773555     0.10540
C488        C  0.40283174  0.29946758  0.65546846    -0.06590
C489        C  0.38252264  0.26800680  0.67577950    -0.17820
C490        C  0.36171125  0.22460828  0.66862523     0.10570
S491        S  0.43983392  0.32424040  0.60209548    -0.32790
S492        S  0.34180794  0.18756561  0.69733062    -0.32790
H493        H  0.36378907  0.21667059  0.71923458     0.28580
H494        H  0.47157917  0.35053882  0.62134947     0.28570
H495        H  0.38504972  0.23695561  0.59837234     0.19170
H496        H  0.38283666  0.27749181  0.69751753     0.19170
C497        C  0.39994529  0.10110588  0.65691018    -0.06660
C498        C  0.35735395  0.08234189  0.66438380    -0.17790
C499        C  0.33400528  0.10222307  0.65972693     0.10540
C500        C  0.35305023  0.14121061  0.64415356    -0.06590
C501        C  0.39765026  0.16259032  0.64129033    -0.17820
C502        C  0.42102117  0.14336739  0.64741449     0.10570
S503        S  0.28184103  0.07391407  0.67540657    -0.32790
S504        S  0.47646121  0.17306428  0.63887294    -0.32790
H505        H  0.47269445  0.14415015  0.61759504     0.28580
H506        H  0.27996151  0.10889430  0.68546298     0.28570
H507        H  0.34181785  0.05147784  0.67412450     0.19170
H508        H  0.41443187  0.19318294  0.63122751     0.19170
C509        C  0.28595125  0.14842577  0.99255224    -0.06660
C510        C  0.26076953  0.10603127  0.50232418    -0.17790
C511        C  0.21714664  0.08136104  0.49789303     0.10540
C512        C  0.19669488  0.09800470  0.98250037    -0.06590
C513        C  0.22022303  0.13900165  0.97211423    -0.17820
C514        C  0.26359753  0.16479473  0.97716766     0.10570
S515        S  0.18949291  0.02865071  0.51226236    -0.32790
S516        S  0.28436970  0.21721049  0.96295663    -0.32790
H517        H  0.29475031  0.23851887  0.98899550     0.28580
H518        H  0.15020090  0.02599693  0.51561223     0.28570
H519        H  0.27532935  0.09191496  0.51427960     0.19170
H520        H  0.20406321  0.15142530  0.96005231     0.19170
C521        C  0.40247071  0.30941277  0.98097578    -0.06660
C522        C  0.39435643  0.27866694  0.96017379    -0.17790
C523        C  0.37306219  0.23526978  0.96626504     0.10540
C524        C  0.35795617  0.22111734  0.99436909    -0.06590
C525        C  0.37099997  0.25340815  0.51530782    -0.17820
C526        C  0.39265983  0.29636988  0.50905794     0.10570
S527        S  0.36589006  0.20116802  0.93626647    -0.32790
S528        S  0.40945859  0.33254704  0.53855092    -0.32790
H529        H  0.44994403  0.35981974  0.52738108     0.28580
H530        H  0.32491068  0.16890144  0.94278568     0.28570
H531        H  0.40345700  0.28832539  0.93854501     0.19170
H532        H  0.36702861  0.24649303  0.53738159     0.19170
C533        C  0.36083009  0.15443740  0.99072473    -0.06660
C534        C  0.34213358  0.11614055  0.97474835    -0.17790
C535        C  0.36377895  0.09474055  0.96811207     0.10540
C536        C  0.40598017  0.11176074  0.97687024    -0.06590
C537        C  0.42643073  0.15177085  0.98970183    -0.17820
C538        C  0.40520888  0.17325326  0.49671066     0.10570
S539        S  0.33568890  0.04620750  0.94786262    -0.32790
S540        S  0.43835677  0.22402757  0.51380352    -0.32790
H541        H  0.41508979  0.21522894  0.53883022     0.28580
H542        H  0.37093569  0.05344430  0.93161798     0.28570
H543        H  0.31028786  0.10202465  0.96702725     0.19170
H544        H  0.45922456  0.16592755  0.49575935     0.19170
C545        C  0.32993473  0.16712821  0.53594022    -0.06660
C546        C  0.34649516  0.14438778  0.54922513    -0.17790
C547        C  0.34896984  0.14187456  0.57837166     0.10540
C548        C  0.33167108  0.16092769  0.59659707    -0.06590
C549        C  0.31014233  0.17869121  0.58305532    -0.17820
C550        C  0.30719497  0.18015756  0.55384694     0.10570
S551        S  0.37434552  0.11246284  0.58769585    -0.32790
S552        S  0.27576494  0.20139955  0.54088532    -0.32790
H553        H  0.25130916  0.19476462  0.56535599     0.28580
H554        H  0.34253884  0.08271048  0.60506051     0.28570
H555        H  0.35789107  0.12724376  0.53698029     0.19170
H556        H  0.29582311  0.19273096  0.59586558     0.19170
C557        C  0.33352744  0.67327425  0.00284825    -0.03020
C558        C  0.33081740  0.66284783  0.12978634    -0.03020
C559        C  0.16379744  0.84418497  0.38315710    -0.03020
C560        C  0.16129369  0.83811722  0.25554192    -0.03020
C561        C  0.42928647  0.58852953  0.47431385     0.41920
N562        N  0.44281908  0.53801523  0.47469932     0.00810
C563        C  0.13687969  0.55677789  0.44653228    -0.07070
H564        H  0.09308815  0.62839151  0.37475534     0.06300
C565        C  0.46542812  0.97804430  0.34914107    -0.07420
Co566      Co  0.03557916  0.56949610  0.47281367     0.74180
N567        N  0.06485873  0.59605588  0.41353278    -0.26590
Co568      Co  0.05985499  0.53727593  0.40954351     0.74070
C569        C  0.49678242  0.51274049  0.33194988     0.42020
N570        N  0.40765188  0.94983273  0.41374960     0.00430
N571        N  0.01975564  0.52052132  0.37446271     0.00530
N572        N  0.12139762  0.57843661  0.48729680    -0.47440
H573        H  0.50026889  0.63921912  0.47407410     0.06290
N574        N  0.05614174  0.60837596  0.43766308     0.00820
N575        N  0.05415735  0.97820362  0.40710095     0.00560
C576        C  0.06719286  0.92792859  0.40382482     0.42160
N577        N  0.39883865  0.96250641  0.43768435    -0.26050
C578        C  0.03050590  0.53508629  0.03383228    -0.06970
N579        N  0.41146199  0.54595539  0.47476417    -0.47160
N580        N  0.08546959  0.97044042  0.40503358    -0.47380
C581        C  0.49857754  0.99944762  0.05033152     0.41940
N582        N  0.08992472  0.56480294  0.46904000     0.00810
N583        N  0.43272752  0.92002790  0.46894243    -0.26070
N584        N  0.48038776  0.57276262  0.47461293    -0.26570
N585        N  0.44284854  0.90782837  0.44535859     0.00440
H586        H  0.40338206  0.88853285  0.00718622     0.06330
H587        H  0.99655951  0.87692357  0.40553759     0.06370
N588        N  0.09872705  0.55281847  0.44477882    -0.26610
N589        N  0.48245021  0.98535795  0.37493866    -0.26230
N590        N  0.47634978  0.99472063  0.00790807     0.00810
C591        C  0.08291829  0.66364770  0.41192157     0.42210
C592        C  0.36030011  0.95731272  0.43609013    -0.07480
N593        N  0.01671335  0.94339593  0.40744567    -0.26230
H594        H  0.43640238  0.95000220  0.34269702     0.06350
N595        N  0.06659957  0.64861883  0.43758931    -0.47450
H596        H  0.34336548  0.96192749  0.45321202     0.06340
C597        C  0.41985429  0.85402912  0.47238211     0.42040
C598        C  0.47512710  0.60641620  0.47459350    -0.06980
Co599      Co  0.43714605  0.97858959  0.47269532     0.73820
N600        N  0.37592618  0.93459444  0.39568941    -0.47170
C601        C  0.15165681  0.57295778  0.47488314     0.42310
N602        N  0.46571715  0.97610573  0.03288624    -0.47160
Co603      Co  0.46197757  0.94602849  0.41003138     0.73890
C604        C  0.02167650  0.90975510  0.40567486    -0.07480
C605        C  0.08130676  0.62865663  0.39567492    -0.07050
N606        N  0.01392581  0.52952153  0.00793409    -0.26570
N607        N  0.02988058  0.53753960  0.34897715    -0.47340
H608        H  0.15354914  0.55182637  0.42938271     0.06310
C609        C  0.41708044  0.88803461  0.48708504    -0.07460
Cl610      Cl  0.49870193  0.50795722  0.44126935    -0.50460
C611        C  0.34554847  0.93953855  0.40818000     0.42070
H612        H  0.05995019  0.56218387  0.04075209     0.06280
N613        N  0.43537015  0.86853169  0.44643060    -0.47170
C614        C  0.34436176  0.93130922  0.22754756     0.41920
N615        N  0.39642900  0.94946921  0.19895701     0.00810
C616        C  0.09471611  0.97817504  0.22215231    -0.07070
H617        H  0.06157974  0.57204829  0.28838115     0.06300
C618        C  0.05015593  0.64276014  0.19204450    -0.07420
Co619      Co  0.46782622  0.94469013  0.22480252     0.74180
N620        N  0.02395804  0.52459974  0.25700522    -0.26590
Co621      Co  0.06098046  0.54171939  0.22034099     0.74070
C622        C  0.06924139  0.66063162  0.21906146     0.42020
N623        N  0.46793676  0.55789554  0.15784671     0.00430
N624        N  0.05837340  0.59733024  0.21574262     0.00530
N625        N  0.03321861  0.91594079  0.22600069    -0.47440
H626        H  0.37942573  0.91995296  0.26327697     0.06290
N627        N  0.48811952  0.98799268  0.25855030     0.00820
N628        N  0.09721682  0.55809202  0.18394368     0.00560
C629        C  0.15030009  0.58228401  0.15639107     0.42160
N630        N  0.43224315  0.52128962  0.15931198    -0.26050
C631        C  0.44157187  0.86260290  0.19122084    -0.06970
N632        N  0.35758847  0.94297387  0.20081308    -0.47160
N633        N  0.13730001  0.56872311  0.18275820    -0.47380
C634        C  0.42278815  0.84473960  0.16400393     0.41940
N635        N  0.02664923  0.94828669  0.22484755     0.00810
N636        N  0.47046826  0.98217616  0.12533698    -0.26070
N637        N  0.40960007  0.94205825  0.22281607    -0.26570
N638        N  0.00637309  0.51884938  0.12433627     0.00440
H639        H  0.43292914  0.93694601  0.09277999     0.06330
H640        H  0.11458515  0.59193927  0.12053422     0.06370
N641        N  0.06213451  0.98516619  0.22283241    -0.26610
N642        N  0.04473886  0.60382042  0.19177941    -0.26230
N643        N  0.43507921  0.90877173  0.16708762     0.00810
C644        C  0.49818213  0.51347034  0.30080228     0.42210
C645        C  0.40019627  0.52892495  0.15972111    -0.07480
N646        N  0.08370249  0.56509375  0.16011870    -0.26230
H647        H  0.04438216  0.65775808  0.17458620     0.06350
N648        N  0.47200774  0.97994208  0.28438673    -0.47450
H649        H  0.36706284  0.50506920  0.16100239     0.06340
C650        C  0.49682346  0.99598041  0.08144400     0.42040
C651        C  0.37868725  0.93003757  0.24209456    -0.06980
Co652      Co  0.43287062  0.96472976  0.16217759     0.73820
N653        N  0.46232383  0.59073662  0.15737543    -0.47170
C654        C  0.07535133  0.93209418  0.22371057     0.42310
N655        N  0.41915199  0.87491029  0.15018215    -0.47160
Co656      Co  0.02580811  0.56150292  0.15818019     0.73890
C657        C  0.11517478  0.58023868  0.14121153    -0.07480
C658        C  0.03287515  0.54311331  0.28269004    -0.07050
N659        N  0.44795760  0.90194223  0.19127647    -0.26570
N660        N  0.07464902  0.63133536  0.23248737    -0.47340
H661        H  0.12776436  0.00226852  0.22073953     0.06450
C662        C  0.46182220  0.96521316  0.09912258    -0.07460
Cl663      Cl  0.49687451  0.50307611  0.19135506    -0.50460
C664        C  0.42045090  0.57526859  0.15850383     0.42070
H665        H  0.44725481  0.84767056  0.20876473     0.06280
N666        N  0.02273650  0.52836239  0.09862352    -0.47170
C667        C  0.09128848  0.70613087  0.22593411    -0.06660
C668        C  0.13315755  0.73161539  0.21711019    -0.17790
C669        C  0.15515119  0.77563307  0.22174674     0.10540
C670        C  0.13708728  0.79407893  0.23977276    -0.06590
C671        C  0.09269324  0.76900212  0.24381013    -0.17820
C672        C  0.06987617  0.72565174  0.23720546     0.10570
S673        S  0.20154122  0.80451460  0.19995976    -0.32790
S674        S  0.01409895  0.69681526  0.24519510    -0.32790
H675        H  0.01089751  0.65771511  0.25080817     0.28580
H676        H  0.19395180  0.83739044  0.19400992     0.28570
H677        H  0.14798876  0.71735821  0.20497582     0.19170
H678        H  0.07564020  0.78189555  0.25428980     0.19170
C679        C  0.13638181  0.86162338  0.24731788    -0.06660
C680        C  0.13982913  0.87660832  0.21944952    -0.17790
C681        C  0.12137321  0.90033352  0.21108611     0.10540
C682        C  0.09641372  0.90786801  0.23035392    -0.06590
C683        C  0.08856581  0.88939735  0.25673172    -0.17820
C684        C  0.10565059  0.86471573  0.26501528     0.10570
S685        S  0.13079234  0.91982146  0.17550940    -0.32790
S686        S  0.08107112  0.83387270  0.29641750    -0.32790
H687        H  0.04231324  0.83265640  0.29446191     0.28580
H688        H  0.09381710  0.92178392  0.17282221     0.28570
H689        H  0.15836520  0.87103601  0.20408859     0.19170
H690        H  0.06760723  0.89350353  0.27093715     0.19170
C691        C  0.29948030  0.91118902  0.23649681    -0.06660
C692        C  0.28171873  0.87282936  0.25066095    -0.17790
C693        C  0.23834226  0.84891975  0.25664367     0.10540
C694        C  0.21040887  0.86379317  0.24869614    -0.06590
C695        C  0.23035118  0.90509459  0.23703166    -0.17820
C696        C  0.27349446  0.92779120  0.22999555     0.10570
S697        S  0.22081049  0.79890282  0.27367899    -0.32790
S698        S  0.29363064  0.97860379  0.21350927    -0.32790
H699        H  0.33443645  0.49743734  0.22496472     0.28580
H700        H  0.25583571  0.79455322  0.26718547     0.28570
H701        H  0.30197434  0.86063135  0.25625144     0.19170
H702        H  0.21338261  0.92144797  0.23392268     0.19170
C703        C  0.10450673  0.70912514  0.40525142    -0.06660
C704        C  0.08721612  0.73247924  0.41641167    -0.17790
C705        C  0.10615840  0.77625646  0.41243422     0.10540
C706        C  0.14272966  0.79757463  0.39449769    -0.06590
C707        C  0.16148204  0.77364127  0.38547105    -0.17820
C708        C  0.14320744  0.73046258  0.39067481     0.10570
S709        S  0.08575555  0.80223046  0.43492686    -0.32790
S710        S  0.17255663  0.70563977  0.37951500    -0.32790
H711        H  0.16572649  0.68331007  0.40475277     0.28580
H712        H  0.04442082  0.76747092  0.43772775     0.28570
H713        H  0.05918395  0.71628787  0.42946675     0.19170
H714        H  0.19046741  0.78892957  0.37325830     0.19170
C715        C  0.13820056  0.86517779  0.39258648    -0.06660
C716        C  0.09895686  0.85015336  0.37880608    -0.17790
C717        C  0.07628504  0.87087522  0.38120373     0.10540
C718        C  0.09038915  0.90555696  0.39979011    -0.06590
C719        C  0.12694510  0.91879439  0.41558569    -0.17820
C720        C  0.15077383  0.89881515  0.41285824     0.10570
S721        S  0.03213182  0.85395185  0.35779092    -0.32790
S722        S  0.19223211  0.91355132  0.43847031    -0.32790
H723        H  0.19298116  0.94956604  0.44992099     0.28580
H724        H  0.04191608  0.89535078  0.35123266     0.28570
H725        H  0.08690309  0.82313205  0.36457357     0.19170
H726        H  0.13607076  0.94431933  0.43078295     0.19170
C727        C  0.21165835  0.86963974  0.39265428    -0.06660
C728        C  0.23864044  0.91025929  0.38124906    -0.17790
C729        C  0.28221438  0.93281806  0.38489431     0.10540
C730        C  0.30101709  0.91500589  0.40056482    -0.06590
C731        C  0.27556961  0.87662822  0.41415450    -0.17820
C732        C  0.23151130  0.85544658  0.41227117     0.10570
S733        S  0.31158467  0.98570891  0.37075872    -0.32790
S734        S  0.20548118  0.81782762  0.44037006    -0.32790
H735        H  0.17562458  0.82997891  0.44600312     0.28580
H736        H  0.34984938  0.98643993  0.36668210     0.28570
H737        H  0.22647230  0.92666717  0.37070992     0.19170
H738        H  0.29012342  0.86515673  0.42858104     0.19170
C739        C  0.16144899  0.83544932  0.28839106    -0.06660
C740        C  0.17920559  0.87495524  0.30264790    -0.17790
C741        C  0.17435163  0.87853454  0.33161981     0.10540
C742        C  0.16190928  0.84264305  0.34938043    -0.06590
C743        C  0.14182299  0.80313233  0.33478914    -0.17820
C744        C  0.14307491  0.79854463  0.30562101     0.10570
S745        S  0.17060296  0.92471675  0.34178748    -0.32790
S746        S  0.12359721  0.74447682  0.29380326    -0.32790
H747        H  0.09020406  0.72459966  0.31331017     0.28580
H748        H  0.16459540  0.93613418  0.31479184     0.28570
H749        H  0.19192093  0.90349378  0.29024825     0.19170
H750        H  0.12235176  0.77411467  0.34576685     0.19170
C751        C  0.28230504  0.64115803  0.13670074    -0.06660
C752        C  0.26605493  0.66379550  0.15153525    -0.17790
C753        C  0.22320766  0.64585318  0.15781979     0.10540
C754        C  0.19452996  0.60486159  0.14793360    -0.06590
C755        C  0.20858549  0.58327209  0.13113353    -0.17820
C756        C  0.25142705  0.60052946  0.12501307     0.10570
S757        S  0.20730700  0.67697123  0.17881529    -0.32790
S758        S  0.26399297  0.56723558  0.10362841    -0.32790
H759        H  0.22477252  0.54402267  0.08994926     0.28580
H760        H  0.16648088  0.65936574  0.16766727     0.28570
H761        H  0.28591081  0.69616469  0.15826511     0.19170
H762        H  0.18578563  0.55167331  0.12365956     0.19170
C763        C  0.35678434  0.71135297  0.13965017    -0.06660
C764        C  0.38130022  0.74409864  0.11996908    -0.17790
C765        C  0.40460957  0.78702125  0.12773597     0.10540
C766        C  0.40283143  0.79946794  0.15546886    -0.06590
C767        C  0.38252344  0.76800681  0.17577982    -0.17820
C768        C  0.36171376  0.72460839  0.16862544     0.10570
S769        S  0.43983393  0.82424227  0.10209609    -0.32790
S770        S  0.34181152  0.68756551  0.19733071    -0.32790
H771        H  0.36379256  0.71667060  0.21923464     0.28580
H772        H  0.47157848  0.85054147  0.12135025     0.28570
H773        H  0.38505268  0.73695677  0.09837267     0.19170
H774        H  0.38283684  0.77749141  0.19751787     0.19170
C775        C  0.39994841  0.60110604  0.15691002    -0.06660
C776        C  0.35735702  0.58234201  0.16438350    -0.17790
C777        C  0.33400844  0.60222330  0.15972671     0.10540
C778        C  0.35305349  0.64121099  0.14415348    -0.06590
C779        C  0.39765353  0.66259074  0.14129042    -0.17820
C780        C  0.42102438  0.64336768  0.14741452     0.10570
S781        S  0.28184425  0.57391437  0.17540647    -0.32790
S782        S  0.47646451  0.67306469  0.13887326    -0.32790
H783        H  0.47269798  0.64415086  0.11759521     0.28580
H784        H  0.27996466  0.60889460  0.18546278     0.28570
H785        H  0.34182084  0.55147788  0.17412410     0.19170
H786        H  0.41443519  0.69318352  0.13122780     0.19170
C787        C  0.28595291  0.64842596  0.49255242    -0.06660
C788        C  0.26077125  0.60603144  0.00232437    -0.17790
C789        C  0.21714833  0.58136110  0.99789326     0.10540
C790        C  0.19669649  0.59800474  0.48250072    -0.06590
C791        C  0.22022448  0.63900176  0.47211469    -0.17820
C792        C  0.26359898  0.66479491  0.47716804     0.10570
S793        S  0.18949478  0.52865069  0.01226248    -0.32790
S794        S  0.28437077  0.71721073  0.46295720    -0.32790
H795        H  0.29475181  0.73851903  0.48899609     0.28580
H796        H  0.15020265  0.52599666  0.01561231     0.28570
H797        H  0.27533120  0.59191517  0.01427970     0.19170
H798        H  0.20406453  0.65142539  0.46005290     0.19170
C799        C  0.40247095  0.80941282  0.48097557    -0.06660
C800        C  0.39435670  0.77866706  0.46017354    -0.17790
C801        C  0.37306314  0.73526994  0.46626485     0.10540
C802        C  0.35795771  0.72111753  0.49436900    -0.06590
C803        C  0.37100165  0.75340835  0.01530777    -0.17820
C804        C  0.39266090  0.79637004  0.00905782     0.10570
S805        S  0.36589082  0.70116818  0.43626625    -0.32790
S806        S  0.40946026  0.83254738  0.03855071    -0.32790
H807        H  0.44994515  0.85982052  0.02738026     0.28580
H808        H  0.32491162  0.66890143  0.44278567     0.28570
H809        H  0.40345667  0.78832550  0.43854469     0.19170
H810        H  0.36703091  0.74649330  0.03738155     0.19170
C811        C  0.36083183  0.65443770  0.49072439    -0.06660
C812        C  0.34213516  0.61614072  0.47474814    -0.17790
C813        C  0.36378053  0.59474072  0.46811179     0.10540
C814        C  0.40598189  0.61176106  0.47686971    -0.06590
C815        C  0.42643257  0.65177134  0.48970107    -0.17820
C816        C  0.40521068  0.67325377  0.99670999     0.10570
S817        S  0.33569027  0.54620744  0.44786259    -0.32790
S818        S  0.43835874  0.72402827  0.01380256    -0.32790
H819        H  0.41509239  0.71522957  0.03882955     0.28580
H820        H  0.37093685  0.55344413  0.43161777     0.28570
H821        H  0.31028933  0.60202468  0.46702725     0.19170
H822        H  0.45922645  0.66592823  0.99575836     0.19170
C823        C  0.32993697  0.66712851  0.03594017    -0.06660
C824        C  0.34649792  0.64438843  0.04922493    -0.17790
C825        C  0.34897322  0.64187555  0.07837145     0.10540
C826        C  0.33167446  0.66092850  0.09659702    -0.06590
C827        C  0.31014541  0.67869185  0.08305544    -0.17820
C828        C  0.30719744  0.68015786  0.05384709     0.10570
S829        S  0.37434981  0.61246466  0.08769546    -0.32790
S830        S  0.27576691  0.70139949  0.04088579    -0.32790
H831        H  0.25131142  0.69476440  0.06535663     0.28580
H832        H  0.34254324  0.58271173  0.10505993     0.28570
H833        H  0.35789384  0.62724451  0.03697999     0.19170
H834        H  0.29582629  0.69273159  0.09586580     0.19170
C835        C  0.33352748  0.67327426  0.50284823    -0.03020
C836        C  0.33081742  0.66284783  0.62978632    -0.03020
C837        C  0.16379742  0.84418496  0.88315711    -0.03020
C838        C  0.16129370  0.83811723  0.75554192    -0.03020
C839        C  0.42928645  0.58852954  0.97431386     0.41920
N840        N  0.44281905  0.53801524  0.97469931     0.00810
C841        C  0.13687965  0.55677788  0.94653229    -0.07070
H842        H  0.09308813  0.62839150  0.87475534     0.06300
C843        C  0.46542810  0.97804427  0.84914108    -0.07420
Co844      Co  0.03557912  0.56949610  0.97281367     0.74180
N845        N  0.06485870  0.59605588  0.91353278    -0.26590
Co846      Co  0.05985496  0.53727593  0.90954351     0.74070
C847        C  0.49678243  0.51274049  0.83194987     0.42020
N848        N  0.40765185  0.94983273  0.91374960     0.00430
N849        N  0.01975562  0.52052132  0.87446271     0.00530
N850        N  0.12139758  0.57843660  0.98729680    -0.47440
H851        H  0.50026887  0.63921913  0.97407411     0.06290
N852        N  0.05614171  0.60837596  0.93766308     0.00820
N853        N  0.05415732  0.97820360  0.90710097     0.00560
C854        C  0.06719283  0.92792857  0.90382486     0.42160
N855        N  0.39883862  0.96250642  0.93768434    -0.26050
C856        C  0.03050595  0.53508630  0.53383228    -0.06970
N857        N  0.41146196  0.54595540  0.97476417    -0.47160
N858        N  0.08546956  0.97044040  0.90503362    -0.47380
C859        C  0.49857757  0.99944761  0.55033152     0.41940
N860        N  0.08992468  0.56480294  0.96904000     0.00810
N861        N  0.43272747  0.92002791  0.96894245    -0.26070
N862        N  0.48038772  0.57276263  0.97461293    -0.26570
N863        N  0.44284850  0.90782836  0.94535861     0.00440
H864        H  0.40338213  0.88853282  0.50718620     0.06330
H865        H  0.99655949  0.87692355  0.90553762     0.06370
N866        N  0.09872702  0.55281846  0.94477883    -0.26610
N867        N  0.48245019  0.98535792  0.87493867    -0.26230
N868        N  0.47634982  0.99472061  0.50790807     0.00810
C869        C  0.08291826  0.66364769  0.91192157     0.42210
C870        C  0.36030009  0.95731274  0.93609011    -0.07480
N871        N  0.01671332  0.94339591  0.90744569    -0.26230
H872        H  0.43640237  0.95000218  0.84269703     0.06350
N873        N  0.06659954  0.64861883  0.93758930    -0.47450
H874        H  0.34336546  0.96192754  0.95321200     0.06340
C875        C  0.41985422  0.85402912  0.97238214     0.42040
C876        C  0.47512708  0.60641621  0.97459351    -0.06980
Co877      Co  0.43714602  0.97858960  0.97269532     0.73820
N878        N  0.37592615  0.93459443  0.89568941    -0.47170
C879        C  0.15165677  0.57295777  0.97488315     0.42310
N880        N  0.46571718  0.97610572  0.53288624    -0.47160
Co881      Co  0.46197754  0.94602847  0.91003139     0.73890
C882        C  0.02167648  0.90975508  0.90567490    -0.07480
C883        C  0.08130673  0.62865662  0.89567492    -0.07050
N884        N  0.01392587  0.52952153  0.50793409    -0.26570
N885        N  0.02988058  0.53753960  0.84897715    -0.47340
H886        H  0.15354911  0.55182636  0.92938272     0.06310
C887        C  0.41708037  0.88803463  0.98708506    -0.07460
Cl888      Cl  0.49870190  0.50795722  0.94126935    -0.50460
C889        C  0.34554845  0.93953857  0.90817998     0.42070
H890        H  0.05995023  0.56218388  0.54075209     0.06280
N891        N  0.43537010  0.86853168  0.94643063    -0.47170
C892        C  0.34436176  0.93130922  0.72754756     0.41920
N893        N  0.39642900  0.94946920  0.69895701     0.00810
C894        C  0.09471611  0.97817504  0.72215232    -0.07070
H895        H  0.06157975  0.57204830  0.78838115     0.06300
C896        C  0.05015593  0.64276014  0.69204451    -0.07420
Co897      Co  0.46782622  0.94469013  0.72480252     0.74180
N898        N  0.02395806  0.52459975  0.75700522    -0.26590
Co899      Co  0.06098048  0.54171941  0.72034098     0.74070
C900        C  0.06924139  0.66063163  0.71906147     0.42020
N901        N  0.46793678  0.55789555  0.65784671     0.00430
N902        N  0.05837341  0.59733025  0.71574263     0.00530
N903        N  0.03321861  0.91594080  0.72600070    -0.47440
H904        H  0.37942573  0.91995296  0.76327697     0.06290
N905        N  0.48811951  0.98799267  0.75855030     0.00820
N906        N  0.09721684  0.55809204  0.68394368     0.00560
C907        C  0.15030010  0.58228403  0.65639106     0.42160
N908        N  0.43224316  0.52128961  0.65931197    -0.26050
C909        C  0.44157186  0.86260290  0.69122085    -0.06970
N910        N  0.35758847  0.94297386  0.70081308    -0.47160
N911        N  0.13730003  0.56872313  0.68275820    -0.47380
C912        C  0.42278815  0.84473960  0.66400394     0.41940
N913        N  0.02664923  0.94828669  0.72484756     0.00810
N914        N  0.47046827  0.98217616  0.62533698    -0.26070
N915        N  0.40960007  0.94205825  0.72281607    -0.26570
N916        N  0.00637312  0.51884940  0.62433627     0.00440
H917        H  0.43292916  0.93694600  0.59277999     0.06330
H918        H  0.11458516  0.59193928  0.62053422     0.06370
N919        N  0.06213451  0.98516619  0.72283241    -0.26610
N920        N  0.04473887  0.60382043  0.69177941    -0.26230
N921        N  0.43507921  0.90877173  0.66708763     0.00810
C922        C  0.49818215  0.51347034  0.80080227     0.42210
C923        C  0.40019628  0.52892494  0.65972110    -0.07480
N924        N  0.08370251  0.56509377  0.66011870    -0.26230
H925        H  0.04438215  0.65775808  0.67458621     0.06350
N926        N  0.47200773  0.97994207  0.78438673    -0.47450
H927        H  0.36706285  0.50506919  0.66100238     0.06340
C928        C  0.49682348  0.99598040  0.58144401     0.42040
C929        C  0.37868725  0.93003757  0.74209456    -0.06980
Co930      Co  0.43287062  0.96472975  0.66217760     0.73820
N931        N  0.46232383  0.59073662  0.65737542    -0.47170
C932        C  0.07535133  0.93209419  0.72371058     0.42310
N933        N  0.41915199  0.87491029  0.65018215    -0.47160
Co934      Co  0.02580812  0.56150293  0.65818019     0.73890
C935        C  0.11517480  0.58023870  0.64121153    -0.07480
C936        C  0.03287516  0.54311331  0.78269004    -0.07050
N937        N  0.44795760  0.90194223  0.69127648    -0.26570
N938        N  0.07464902  0.63133537  0.73248737    -0.47340
H939        H  0.12776436  0.00226853  0.72073954     0.06450
C940        C  0.46182222  0.96521315  0.59912258    -0.07460
Cl941      Cl  0.49687454  0.50307612  0.69135505    -0.50460
C942        C  0.42045091  0.57526858  0.65850382     0.42070
H943        H  0.44725480  0.84767056  0.70876475     0.06280
N944        N  0.02273654  0.52836241  0.59862353    -0.47170
C945        C  0.09128847  0.70613088  0.72593412    -0.06660
C946        C  0.13315755  0.73161540  0.71711020    -0.17790
C947        C  0.15515119  0.77563308  0.72174674     0.10540
C948        C  0.13708728  0.79407894  0.73977277    -0.06590
C949        C  0.09269324  0.76900213  0.74381013    -0.17820
C950        C  0.06987616  0.72565174  0.73720546     0.10570
S951        S  0.20154121  0.80451460  0.69995976    -0.32790
S952        S  0.01409895  0.69681527  0.74519510    -0.32790
H953        H  0.01089750  0.65771511  0.75080817     0.28580
H954        H  0.19395179  0.83739044  0.69400992     0.28570
H955        H  0.14798876  0.71735821  0.70497583     0.19170
H956        H  0.07564020  0.78189556  0.75428981     0.19170
C957        C  0.13638181  0.86162339  0.74731788    -0.06660
C958        C  0.13982913  0.87660832  0.71944953    -0.17790
C959        C  0.12137321  0.90033352  0.71108612     0.10540
C960        C  0.09641372  0.90786802  0.73035393    -0.06590
C961        C  0.08856582  0.88939737  0.75673173    -0.17820
C962        C  0.10565060  0.86471575  0.76501529     0.10570
S963        S  0.13079233  0.91982146  0.67550940    -0.32790
S964        S  0.08107113  0.83387272  0.79641751    -0.32790
H965        H  0.04231325  0.83265640  0.79446191     0.28580
H966        H  0.09381709  0.92178392  0.67282222     0.28570
H967        H  0.15836519  0.87103601  0.70408860     0.19170
H968        H  0.06760725  0.89350355  0.77093716     0.19170
C969        C  0.29948030  0.91118902  0.73649680    -0.06660
C970        C  0.28171873  0.87282935  0.75066095    -0.17790
C971        C  0.23834226  0.84891975  0.75664367     0.10540
C972        C  0.21040887  0.86379318  0.74869614    -0.06590
C973        C  0.23035118  0.90509459  0.73703166    -0.17820
C974        C  0.27349446  0.92779120  0.72999555     0.10570
S975        S  0.22081049  0.79890282  0.77367899    -0.32790
S976        S  0.29363064  0.97860378  0.71350926    -0.32790
H977        H  0.33443647  0.49743733  0.72496470     0.28580
H978        H  0.25583571  0.79455321  0.76718547     0.28570
H979        H  0.30197434  0.86063134  0.75625144     0.19170
H980        H  0.21338261  0.92144797  0.73392268     0.19170
C981        C  0.10450670  0.70912513  0.90525141    -0.06660
C982        C  0.08721609  0.73247923  0.91641166    -0.17790
C983        C  0.10615837  0.77625645  0.91243421     0.10540
C984        C  0.14272963  0.79757462  0.89449769    -0.06590
C985        C  0.16148201  0.77364126  0.88547104    -0.17820
C986        C  0.14320740  0.73046257  0.89067480     0.10570
S987        S  0.08575550  0.80223044  0.93492685    -0.32790
S988        S  0.17255660  0.70563977  0.87951499    -0.32790
H989        H  0.16572647  0.68331007  0.90475276     0.28580
H990        H  0.04442076  0.76747090  0.93772771     0.28570
H991        H  0.05918392  0.71628786  0.92946674     0.19170
H992        H  0.19046738  0.78892956  0.87325829     0.19170
C993        C  0.13820053  0.86517779  0.89258648    -0.06660
C994        C  0.09895685  0.85015338  0.87880606    -0.17790
C995        C  0.07628503  0.87087525  0.88120373     0.10540
C996        C  0.09038912  0.90555695  0.89979014    -0.06590
C997        C  0.12694505  0.91879435  0.91558574    -0.17820
C998        C  0.15077378  0.89881510  0.91285828     0.10570
S999        S  0.03213185  0.85395193  0.85779089    -0.32790
S1000       S  0.19223200  0.91355119  0.93847038    -0.32790
H1001       H  0.19298103  0.94956587  0.94992111     0.28580
H1002       H  0.04191611  0.89535088  0.85123267     0.28570
H1003       H  0.08690310  0.82313210  0.86457354     0.19170
H1004       H  0.13607070  0.94431925  0.93078301     0.19170
C1005       C  0.21165833  0.86963974  0.89265430    -0.06660
C1006       C  0.23864039  0.91025933  0.88124914    -0.17790
C1007       C  0.28221433  0.93281811  0.88489436     0.10540
C1008       C  0.30101707  0.91500591  0.90056481    -0.06590
C1009       C  0.27556961  0.87662819  0.91415445    -0.17820
C1010       C  0.23151130  0.85544655  0.91227114     0.10570
S1011       S  0.31158458  0.98570900  0.87075884    -0.32790
S1012       S  0.20548122  0.81782756  0.94037002    -0.32790
H1013       H  0.17562458  0.82997881  0.94600310     0.28580
H1014       H  0.34984932  0.98644006  0.86668218     0.28570
H1015       H  0.22647216  0.92666728  0.87071003     0.19170
H1016       H  0.29012345  0.86515667  0.92858096     0.19170
C1017       C  0.16144900  0.83544933  0.78839107    -0.06660
C1018       C  0.17920561  0.87495524  0.80264791    -0.17790
C1019       C  0.17435166  0.87853455  0.83161981     0.10540
C1020       C  0.16190928  0.84264306  0.84938044    -0.06590
C1021       C  0.14182298  0.80313234  0.83478915    -0.17820
C1022       C  0.14307491  0.79854464  0.80562101     0.10570
S1023       S  0.17060298  0.92471676  0.84178748    -0.32790
S1024       S  0.12359721  0.74447682  0.79380327    -0.32790
H1025       H  0.09020405  0.72459966  0.81331017     0.28580
H1026       H  0.16459543  0.93613419  0.81479184     0.28570
H1027       H  0.19192096  0.90349379  0.79024826     0.19170
H1028       H  0.12235172  0.77411468  0.84576685     0.19170
C1029       C  0.28230505  0.64115804  0.63670072    -0.06660
C1030       C  0.26605494  0.66379552  0.65153523    -0.17790
C1031       C  0.22320768  0.64585320  0.65781978     0.10540
C1032       C  0.19452998  0.60486160  0.64793359    -0.06590
C1033       C  0.20858551  0.58327211  0.63113351    -0.17820
C1034       C  0.25142706  0.60052948  0.62501304     0.10570
S1035       S  0.20730703  0.67697125  0.67881528    -0.32790
S1036       S  0.26399297  0.56723560  0.60362837    -0.32790
H1037       H  0.22477252  0.54402271  0.58994922     0.28580
H1038       H  0.16648091  0.65936577  0.66766726     0.28570
H1039       H  0.28591083  0.69616470  0.65826509     0.19170
H1040       H  0.18578563  0.55167333  0.62365953     0.19170
C1041       C  0.35678436  0.71135298  0.63965017    -0.06660
C1042       C  0.38130025  0.74409865  0.61996908    -0.17790
C1043       C  0.40460960  0.78702126  0.62773598     0.10540
C1044       C  0.40283144  0.79946794  0.65546887    -0.06590
C1045       C  0.38252344  0.76800680  0.67577982    -0.17820
C1046       C  0.36171376  0.72460838  0.66862544     0.10570
S1047       S  0.43983398  0.82424229  0.60209611    -0.32790
S1048       S  0.34181151  0.68756549  0.69733070    -0.32790
H1049       H  0.36379253  0.71667057  0.71923463     0.28580
H1050       H  0.47157852  0.85054148  0.62135028     0.28570
H1051       H  0.38505273  0.73695678  0.59837267     0.19170
H1052       H  0.38283683  0.77749139  0.69751788     0.19170
C1053       C  0.39994841  0.60110603  0.65691001    -0.06660
C1054       C  0.35735702  0.58234199  0.66438348    -0.17790
C1055       C  0.33400844  0.60222329  0.65972668     0.10540
C1056       C  0.35305350  0.64121098  0.64415346    -0.06590
C1057       C  0.39765354  0.66259073  0.64129041    -0.17820
C1058       C  0.42102438  0.64336767  0.64741452     0.10570
S1059       S  0.28184424  0.57391435  0.67540643    -0.32790
S1060       S  0.47646451  0.67306468  0.63887327    -0.32790
H1061       H  0.47269800  0.64415086  0.61759521     0.28580
H1062       H  0.27996465  0.60889458  0.68546275     0.28570
H1063       H  0.34182083  0.55147786  0.67412407     0.19170
H1064       H  0.41443521  0.69318352  0.63122779     0.19170
C1065       C  0.28595287  0.64842594  0.99255243    -0.06660
C1066       C  0.26077129  0.60603145  0.50232436    -0.17790
C1067       C  0.21714838  0.58136111  0.49789326     0.10540
C1068       C  0.19669645  0.59800473  0.98250073    -0.06590
C1069       C  0.22022444  0.63900174  0.97211470    -0.17820
C1070       C  0.26359894  0.66479489  0.97716805     0.10570
S1071       S  0.18949483  0.52865071  0.51226247    -0.32790
S1072       S  0.28437074  0.71721072  0.96295722    -0.32790
H1073       H  0.29475170  0.73851899  0.98899611     0.28580
H1074       H  0.15020270  0.52599668  0.51561231     0.28570
H1075       H  0.27533125  0.59191519  0.51427969     0.19170
H1076       H  0.20406449  0.65142538  0.96005291     0.19170
C1077       C  0.40247087  0.80941282  0.98097561    -0.06660
C1078       C  0.39435667  0.77866707  0.96017358    -0.17790
C1079       C  0.37306311  0.73526995  0.96626489     0.10540
C1080       C  0.35795766  0.72111752  0.99436902    -0.06590
C1081       C  0.37100175  0.75340836  0.51530774    -0.17820
C1082       C  0.39266104  0.79637006  0.50905778     0.10570
S1083       S  0.36589083  0.70116821  0.93626628    -0.32790
S1084       S  0.40946054  0.83254741  0.53855067    -0.32790
H1085       H  0.44994539  0.85982054  0.52738014     0.28580
H1086       H  0.32491161  0.66890145  0.94278569     0.28570
H1087       H  0.40345668  0.78832552  0.93854474     0.19170
H1088       H  0.36703104  0.74649332  0.53738152     0.19170
C1089       C  0.36083179  0.65443770  0.99072441    -0.06660
C1090       C  0.34213513  0.61614072  0.97474816    -0.17790
C1091       C  0.36378051  0.59474073  0.96811180     0.10540
C1092       C  0.40598186  0.61176108  0.97686972    -0.06590
C1093       C  0.42643254  0.65177135  0.98970109    -0.17820
C1094       C  0.40521071  0.67325376  0.49670997     0.10570
S1095       S  0.33569024  0.54620746  0.94786260    -0.32790
S1096       S  0.43835879  0.72402826  0.51380253    -0.32790
H1097       H  0.41509247  0.71522954  0.53882955     0.28580
H1098       H  0.37093683  0.55344416  0.93161777     0.28570
H1099       H  0.31028930  0.60202468  0.96702726     0.19170
H1100       H  0.45922647  0.66592821  0.49575835     0.19170
C1101       C  0.32993702  0.66712853  0.53594015    -0.06660
C1102       C  0.34649796  0.64438845  0.54922491    -0.17790
C1103       C  0.34897325  0.64187557  0.57837144     0.10540
C1104       C  0.33167449  0.66092852  0.59659700    -0.06590
C1105       C  0.31014546  0.67869189  0.58305542    -0.17820
C1106       C  0.30719751  0.68015791  0.55384707     0.10570
S1107       S  0.37434982  0.61246465  0.58769544    -0.32790
S1108       S  0.27576701  0.70139957  0.54088577    -0.32790
H1109       H  0.25131152  0.69476451  0.56535660     0.28580
H1110       H  0.34254323  0.58271172  0.60505990     0.28570
H1111       H  0.35789386  0.62724452  0.53697997     0.19170
H1112       H  0.29582635  0.69273163  0.59586578     0.19170
C1113       C  0.83352568  0.17327405  0.00284831    -0.03020
C1114       C  0.83081409  0.16284735  0.12978637    -0.03020
C1115       C  0.66379943  0.34418511  0.38315723    -0.03020
C1116       C  0.66129740  0.33811766  0.25554206    -0.03020
C1117       C  0.92928474  0.08852916  0.47431437     0.41920
N1118       N  0.94281729  0.03801483  0.47469968     0.00810
C1119       C  0.63687792  0.05677782  0.44653200    -0.07070
H1120       H  0.59308675  0.12839132  0.37475563     0.06300
C1121       C  0.96543080  0.47804404  0.34914078    -0.07420
Co1122     Co  0.53557737  0.06949569  0.47281386     0.74180
N1123       N  0.56485682  0.09605561  0.41353294    -0.26590
Co1124     Co  0.55985293  0.03727566  0.40954350     0.74070
C1125       C  0.99677954  0.01274083  0.33195017     0.42020
N1126       N  0.90765391  0.44983281  0.41374941     0.00430
N1127       N  0.51975338  0.02052124  0.37446280     0.00530
N1128       N  0.62139599  0.07843637  0.48729665    -0.47440
H1129       H  0.00026716  0.13921874  0.47407455     0.06290
N1130       N  0.55613999  0.10837572  0.43766329     0.00820
N1131       N  0.55415946  0.47820392  0.40710111     0.00560
C1132       C  0.56719510  0.42792901  0.40382492     0.42160
N1133       N  0.89884063  0.46250665  0.43768409    -0.26050
C1134       C  0.53050387  0.03508581  0.03383256    -0.06970
N1135       N  0.91146022  0.04595502  0.47476463    -0.47160
N1136       N  0.58547176  0.47044082  0.40503369    -0.47380
C1137       C  0.99857970  0.49944808  0.05033124     0.41940
N1138       N  0.58992290  0.06480251  0.46903998     0.00810
N1139       N  0.93272931  0.42002833  0.46894244    -0.26070
N1140       N  0.98038598  0.07276221  0.47461327    -0.26570
N1141       N  0.94285041  0.40782859  0.44535872     0.00440
H1142       H  0.90338295  0.38853347  0.00718603     0.06330
H1143       H  0.49656179  0.37692385  0.40553766     0.06370
N1144       N  0.59872515  0.05281812  0.44477873    -0.26610
N1145       N  0.98245252  0.48535796  0.37493851    -0.26230
N1146       N  0.97635160  0.49472117  0.00790792     0.00810
C1147       C  0.58291727  0.16364766  0.41192190     0.42210
C1148       C  0.86030204  0.45731279  0.43608981    -0.07480
N1149       N  0.51671549  0.44339617  0.40744585    -0.26230
H1150       H  0.93640526  0.45000179  0.34269664     0.06350
N1151       N  0.56659837  0.14861877  0.43758962    -0.47450
H1152       H  0.84336735  0.46192759  0.45321166     0.06340
C1153       C  0.91985513  0.35402925  0.47238231     0.42040
C1154       C  0.97512536  0.10641581  0.47459394    -0.06980
Co1155     Co  0.93714791  0.47859002  0.47269513     0.73820
N1156       N  0.87592815  0.43459418  0.39568925    -0.47170
C1157       C  0.65165522  0.07295777  0.47488282     0.42310
N1158       N  0.96571915  0.47610621  0.03288607    -0.47160
Co1159     Co  0.96197966  0.44602862  0.41003138     0.73890
C1160       C  0.52167873  0.40975541  0.40567501    -0.07480
C1161       C  0.58130523  0.12865644  0.39567516    -0.07050
N1162       N  0.51392400  0.02952100  0.00793429    -0.26570
N1163       N  0.52987800  0.03753974  0.34897729    -0.47340
H1164       H  0.65354735  0.05182650  0.42938232     0.06310
C1165       C  0.91708166  0.38803506  0.48708506    -0.07460
Cl1166     Cl  0.99870001  0.00795693  0.44126947    -0.50460
C1167       C  0.84555039  0.43953827  0.40817976     0.42070
H1168       H  0.55994804  0.06218346  0.04075245     0.06280
N1169       N  0.93537145  0.36853170  0.44643084    -0.47170
C1170       C  0.84436543  0.43130826  0.22754768     0.41920
N1171       N  0.89643268  0.44946908  0.19895704     0.00810
C1172       C  0.59472043  0.47817603  0.22215169    -0.07070
H1173       H  0.56157666  0.07204827  0.28838134     0.06300
C1174       C  0.55015409  0.14276058  0.19204454    -0.07420
Co1175     Co  0.96783020  0.44469002  0.22480203     0.74180
N1176       N  0.52395441  0.02459986  0.25700549    -0.26590
Co1177     Co  0.56097690  0.04171903  0.22034133     0.74070
C1178       C  0.56924013  0.16063212  0.21906140     0.42020
N1179       N  0.96793366  0.05789544  0.15784683     0.00430
N1180       N  0.55837041  0.09733009  0.21574282     0.00530
N1181       N  0.53322324  0.41594143  0.22599971    -0.47440
H1182       H  0.87942956  0.41995154  0.26327676     0.06290
N1183       N  0.98812338  0.48799232  0.25854997     0.00820
N1184       N  0.59721340  0.05809143  0.18394409     0.00560
C1185       C  0.65029693  0.08228392  0.15639169     0.42160
N1186       N  0.93224001  0.02128951  0.15931192    -0.26050
C1187       C  0.94157489  0.36260266  0.19122011    -0.06970
N1188       N  0.85759208  0.44297349  0.20081327    -0.47160
N1189       N  0.63729667  0.06872273  0.18275875    -0.47380
C1190       C  0.92279032  0.34473944  0.16400334     0.41940
N1191       N  0.52665347  0.44828709  0.22484675     0.00810
N1192       N  0.97047131  0.48217646  0.12533677    -0.26070
N1193       N  0.90960386  0.44205777  0.22281593    -0.26570
N1194       N  0.50637003  0.01884911  0.12433655     0.00440
H1195       H  0.93293183  0.43694637  0.09277986     0.06330
H1196       H  0.61458221  0.09193935  0.12053479     0.06370
N1197       N  0.56213858  0.48516680  0.22283182    -0.26610
N1198       N  0.54473599  0.10382043  0.19177961    -0.26230
N1199       N  0.93508268  0.40877200  0.16708719     0.00810
C1200       C  0.99817876  0.01347083  0.30080259     0.42210
C1201       C  0.90019314  0.02892486  0.15972102    -0.07480
N1202       N  0.58369924  0.06509333  0.16011909    -0.26230
H1203       H  0.54438088  0.15775878  0.17458614     0.06350
N1204       N  0.97201145  0.47994152  0.28438636    -0.47450
H1205       H  0.86705970  0.00506912  0.16100224     0.06340
C1206       C  0.99682603  0.49598076  0.08144370     0.42040
C1207       C  0.87869101  0.43003652  0.24209447    -0.06980
Co1208     Co  0.93287398  0.46472994  0.16217749     0.73820
N1209       N  0.96232076  0.09073654  0.15737565    -0.47170
C1210       C  0.57535603  0.43209519  0.22370965     0.42310
N1211       N  0.91915451  0.37491047  0.15018178    -0.47160
Co1212     Co  0.52580498  0.06150271  0.15818044     0.73890
C1213       C  0.61517169  0.08023852  0.14121205    -0.07480
C1214       C  0.53287180  0.04311351  0.28269028    -0.07050
N1215       N  0.94796137  0.40194229  0.19127585    -0.26570
N1216       N  0.57464693  0.13133542  0.23248738    -0.47340
H1217       H  0.62776861  0.50226975  0.22073906     0.06450
C1218       C  0.96182497  0.46521349  0.09912237    -0.07460
Cl1219     Cl  0.99687101  0.00307596  0.19135535    -0.50460
C1220       C  0.92044781  0.07526848  0.15850393     0.42070
H1221       H  0.94725749  0.34766997  0.20876394     0.06280
N1222       N  0.52273371  0.02836206  0.09862387    -0.47170
C1223       C  0.59128854  0.20613145  0.22593391    -0.06660
C1224       C  0.63315776  0.23161493  0.21710994    -0.17790
C1225       C  0.65515282  0.27563258  0.22174679     0.10540
C1226       C  0.63709000  0.29407936  0.23977299    -0.06590
C1227       C  0.59269591  0.26900360  0.24381059    -0.17820
C1228       C  0.56987757  0.22565335  0.23720575     0.10570
S1229       S  0.70154339  0.30451302  0.19996013    -0.32790
S1230       S  0.51410045  0.19681838  0.24519576    -0.32790
H1231       H  0.51089770  0.15771759  0.25080863     0.28580
H1232       H  0.69395553  0.33738989  0.19401024     0.28570
H1233       H  0.64798808  0.21735697  0.20497541     0.19170
H1234       H  0.57564373  0.28189773  0.25429056     0.19170
C1235       C  0.63638633  0.36162463  0.24731797    -0.06660
C1236       C  0.63983366  0.37660911  0.21944948    -0.17790
C1237       C  0.62137795  0.40033435  0.21108574     0.10540
C1238       C  0.59641873  0.40786947  0.23035341    -0.06590
C1239       C  0.58857117  0.38939969  0.25673148    -0.17820
C1240       C  0.60565565  0.36471794  0.26501535     0.10570
S1241       S  0.63079703  0.41982152  0.17550882    -0.32790
S1242       S  0.58107611  0.33387576  0.29641785    -0.32790
H1243       H  0.54231822  0.33265936  0.29446185     0.28580
H1244       H  0.59382235  0.42178496  0.17282157     0.28570
H1245       H  0.65836947  0.37103625  0.20408864     0.19170
H1246       H  0.56761291  0.39350647  0.27093684     0.19170
C1247       C  0.79948405  0.41118825  0.23649701    -0.06660
C1248       C  0.78172210  0.37282832  0.25066089    -0.17790
C1249       C  0.73834557  0.34891903  0.25664359     0.10540
C1250       C  0.71041256  0.36379297  0.24869618    -0.06590
C1251       C  0.73035528  0.40509455  0.23703193    -0.17820
C1252       C  0.77349860  0.42779095  0.22999597     0.10570
S1253       S  0.72081312  0.29890184  0.27367874    -0.32790
S1254       S  0.79363539  0.47860400  0.21351021    -0.32790
H1255       H  0.83443195  0.99743767  0.22496346     0.28580
H1256       H  0.75583865  0.29455237  0.26718607     0.28570
H1257       H  0.80197746  0.36062994  0.25625120     0.19170
H1258       H  0.71338705  0.42144831  0.23392310     0.19170
C1259       C  0.60450662  0.20912518  0.40525187    -0.06660
C1260       C  0.58721660  0.23247989  0.41641196    -0.17790
C1261       C  0.60615961  0.27625716  0.41243444     0.10540
C1262       C  0.64273101  0.29757478  0.39449796    -0.06590
C1263       C  0.66148280  0.27364079  0.38547153    -0.17820
C1264       C  0.64320750  0.23046205  0.39067541     0.10570
S1265       S  0.58575734  0.30223184  0.43492694    -0.32790
S1266       S  0.67255610  0.20563843  0.37951598    -0.32790
H1267       H  0.66572508  0.18330850  0.40475375     0.28580
H1268       H  0.54442221  0.26747288  0.43772749     0.28570
H1269       H  0.55918430  0.21628895  0.42946696     0.19170
H1270       H  0.69046828  0.28892864  0.37325887     0.19170
C1271       C  0.63820277  0.36517831  0.39258629    -0.06660
C1272       C  0.59895935  0.35015426  0.37880561    -0.17790
C1273       C  0.57628755  0.37087613  0.38120335     0.10540
C1274       C  0.59039147  0.40555754  0.39979001    -0.06590
C1275       C  0.62694724  0.41879470  0.41558572    -0.17820
C1276       C  0.65077586  0.39881536  0.41285827     0.10570
S1277       S  0.53213446  0.35395309  0.35779047    -0.32790
S1278       S  0.69223339  0.41355062  0.43847080    -0.32790
H1279       H  0.69298320  0.44956590  0.44992112     0.28580
H1280       H  0.54191859  0.39535211  0.35123260     0.28570
H1281       H  0.58690568  0.32313314  0.36457295     0.19170
H1282       H  0.63607271  0.44431934  0.43078319     0.19170
C1283       C  0.71166023  0.36963971  0.39265458    -0.06660
C1284       C  0.73864214  0.41025966  0.38124994    -0.17790
C1285       C  0.78221611  0.43281822  0.38489478     0.10540
C1286       C  0.80101902  0.41500558  0.40056461    -0.06590
C1287       C  0.77557165  0.37662764  0.41415406    -0.17820
C1288       C  0.73151331  0.35544611  0.41227101     0.10570
S1289       S  0.81158627  0.48570937  0.37075966    -0.32790
S1290       S  0.70548339  0.31782709  0.44036989    -0.32790
H1291       H  0.67562674  0.32997830  0.44600313     0.28580
H1292       H  0.84985078  0.48644021  0.36668230     0.28570
H1293       H  0.72647349  0.42666825  0.37071176     0.19170
H1294       H  0.79012561  0.36515589  0.42858030     0.19170
C1295       C  0.66145268  0.33544966  0.28839120    -0.06660
C1296       C  0.67920992  0.37495558  0.30264808    -0.17790
C1297       C  0.67435527  0.37853490  0.33161990     0.10540
C1298       C  0.66191187  0.34264323  0.34938055    -0.06590
C1299       C  0.64182547  0.30313255  0.33478922    -0.17820
C1300       C  0.64307788  0.29854489  0.30562109     0.10570
S1301       S  0.67060623  0.42471707  0.34178706    -0.32790
S1302       S  0.62359987  0.24447704  0.29380325    -0.32790
H1303       H  0.59020688  0.22459983  0.31331026     0.28580
H1304       H  0.66460047  0.43613519  0.31479116     0.28570
H1305       H  0.69192596  0.40349419  0.29024845     0.19170
H1306       H  0.62235376  0.27411494  0.34576686     0.19170
C1307       C  0.78230176  0.14115776  0.13670086    -0.06660
C1308       C  0.76605187  0.16379535  0.15153546    -0.17790
C1309       C  0.72320467  0.14585304  0.15782032     0.10540
C1310       C  0.69452682  0.10486141  0.14793423    -0.06590
C1311       C  0.70858211  0.08327189  0.13113399    -0.17820
C1312       C  0.75142358  0.10052919  0.12501329     0.10570
S1313       S  0.70730433  0.17697112  0.17881608    -0.32790
S1314       S  0.76398905  0.06723517  0.10362843    -0.32790
H1315       H  0.72476856  0.04402270  0.08994927     0.28580
H1316       H  0.66647786  0.15936534  0.16766859     0.28570
H1317       H  0.78590792  0.19616457  0.15826523     0.19170
H1318       H  0.68578212  0.05167314  0.12366004     0.19170
C1319       C  0.85678138  0.21135258  0.13965000    -0.06660
C1320       C  0.88129780  0.24409784  0.11996877    -0.17790
C1321       C  0.90460881  0.28702037  0.12773556     0.10540
C1322       C  0.90283172  0.29946758  0.15546847    -0.06590
C1323       C  0.88252263  0.26800680  0.17577950    -0.17820
C1324       C  0.86171125  0.22460828  0.16862524     0.10570
S1325       S  0.93983389  0.32424041  0.10209548    -0.32790
S1326       S  0.84180794  0.18756561  0.19733062    -0.32790
H1327       H  0.86378908  0.21667058  0.21923458     0.28580
H1328       H  0.97157914  0.35053884  0.12134946     0.28570
H1329       H  0.88504972  0.23695561  0.09837234     0.19170
H1330       H  0.88283665  0.27749180  0.19751753     0.19170
C1331       C  0.89994530  0.10110589  0.15691018    -0.06660
C1332       C  0.85735395  0.08234190  0.16438380    -0.17790
C1333       C  0.83400528  0.10222307  0.15972693     0.10540
C1334       C  0.85305023  0.14121062  0.14415356    -0.06590
C1335       C  0.89765026  0.16259032  0.14129033    -0.17820
C1336       C  0.92102117  0.14336739  0.14741449     0.10570
S1337       S  0.78184103  0.07391408  0.17540657    -0.32790
S1338       S  0.97646121  0.17306429  0.13887294    -0.32790
H1339       H  0.97269446  0.14415015  0.11759504     0.28580
H1340       H  0.77996151  0.10889430  0.18546298     0.28570
H1341       H  0.84181786  0.05147785  0.17412450     0.19170
H1342       H  0.91443188  0.19318295  0.13122750     0.19170
C1343       C  0.78595128  0.14842576  0.49255224    -0.06660
C1344       C  0.76076951  0.10603128  0.00232418    -0.17790
C1345       C  0.71714661  0.08136104  0.99789304     0.10540
C1346       C  0.69669491  0.09800469  0.48250036    -0.06590
C1347       C  0.72022306  0.13900164  0.47211422    -0.17820
C1348       C  0.76359756  0.16479472  0.47716765     0.10570
S1349       S  0.68949289  0.02865071  0.01226237    -0.32790
S1350       S  0.78436974  0.21721048  0.46295662    -0.32790
H1351       H  0.79475034  0.23851886  0.48899549     0.28580
H1352       H  0.65020088  0.02599693  0.01561224     0.28570
H1353       H  0.77532933  0.09191497  0.01427960     0.19170
H1354       H  0.70406324  0.15142529  0.46005229     0.19170
C1355       C  0.90247075  0.30941276  0.48097579    -0.06660
C1356       C  0.89435647  0.27866693  0.46017380    -0.17790
C1357       C  0.87306223  0.23526976  0.46626504     0.10540
C1358       C  0.85795620  0.22111733  0.49436909    -0.06590
C1359       C  0.87099994  0.25340816  0.01530782    -0.17820
C1360       C  0.89265979  0.29636989  0.00905794     0.10570
S1361       S  0.86589010  0.20116801  0.43626648    -0.32790
S1362       S  0.90945855  0.33254705  0.03855092    -0.32790
H1363       H  0.94994398  0.35981976  0.02738108     0.28580
H1364       H  0.82491072  0.16890143  0.44278568     0.28570
H1365       H  0.90345705  0.28832539  0.43854502     0.19170
H1366       H  0.86702858  0.24649304  0.03738159     0.19170
C1367       C  0.86083012  0.15443739  0.49072474    -0.06660
C1368       C  0.84213360  0.11614053  0.47474835    -0.17790
C1369       C  0.86377898  0.09474053  0.46811208     0.10540
C1370       C  0.90598019  0.11176071  0.47687025    -0.06590
C1371       C  0.92643075  0.15177082  0.48970185    -0.17820
C1372       C  0.90520886  0.17325328  0.99671065     0.10570
S1373       S  0.83568893  0.04620748  0.44786262    -0.32790
S1374       S  0.93835675  0.22402759  0.01380351    -0.32790
H1375       H  0.91508977  0.21522897  0.03883021     0.28580
H1376       H  0.87093572  0.05344428  0.43161799     0.28570
H1377       H  0.81028789  0.10202463  0.46702724     0.19170
H1378       H  0.95922454  0.16592757  0.99575932     0.19170
C1379       C  0.82993472  0.16712822  0.03594022    -0.06660
C1380       C  0.84649515  0.14438779  0.04922512    -0.17790
C1381       C  0.84896984  0.14187457  0.07837166     0.10540
C1382       C  0.83167108  0.16092770  0.09659707    -0.06590
C1383       C  0.81014232  0.17869122  0.08305533    -0.17820
C1384       C  0.80719496  0.18015756  0.05384694     0.10570
S1385       S  0.87434553  0.11246287  0.08769585    -0.32790
S1386       S  0.77576491  0.20139955  0.04088534    -0.32790
H1387       H  0.75130914  0.19476462  0.06535600     0.28580
H1388       H  0.84253886  0.08271050  0.10506051     0.28570
H1389       H  0.85789106  0.12724378  0.03698028     0.19170
H1390       H  0.79582311  0.19273096  0.09586558     0.19170
C1391       C  0.83352571  0.17327403  0.50284831    -0.03020
C1392       C  0.83081409  0.16284734  0.62978637    -0.03020
C1393       C  0.66379940  0.34418510  0.88315724    -0.03020
C1394       C  0.66129744  0.33811767  0.75554205    -0.03020
C1395       C  0.92928473  0.08852919  0.97431435     0.41920
N1396       N  0.94281727  0.03801486  0.97469966     0.00810
C1397       C  0.63687789  0.05677781  0.94653202    -0.07070
H1398       H  0.59308671  0.12839128  0.87475561     0.06300
C1399       C  0.96543080  0.47804404  0.84914077    -0.07420
Co1400     Co  0.53557734  0.06949570  0.97281385     0.74180
N1401       N  0.56485680  0.09605559  0.91353293    -0.26590
Co1402     Co  0.55985290  0.03727564  0.90954351     0.74070
C1403       C  0.99677953  0.01274080  0.83195018     0.42020
N1404       N  0.90765387  0.44983281  0.91374939     0.00430
N1405       N  0.51975336  0.02052121  0.87446281     0.00530
N1406       N  0.62139596  0.07843638  0.98729666    -0.47440
H1407       H  0.00026715  0.13921876  0.97407453     0.06290
N1408       N  0.55613996  0.10837572  0.93766328     0.00820
N1409       N  0.55415944  0.47820392  0.90710113     0.00560
C1410       C  0.56719509  0.42792902  0.90382496     0.42160
N1411       N  0.89884059  0.46250667  0.93768406    -0.26050
C1412       C  0.53050390  0.03508580  0.53383257    -0.06970
N1413       N  0.91146020  0.04595505  0.97476461    -0.47160
N1414       N  0.58547174  0.47044083  0.90503373    -0.47380
C1415       C  0.99857976  0.49944809  0.55033125     0.41940
N1416       N  0.58992288  0.06480252  0.96903999     0.00810
N1417       N  0.93272925  0.42002833  0.96894243    -0.26070
N1418       N  0.98038596  0.07276224  0.97461325    -0.26570
N1419       N  0.94285036  0.40782859  0.94535871     0.00440
H1420       H  0.90338301  0.38853346  0.50718604     0.06330
H1421       H  0.49656178  0.37692385  0.90553767     0.06370
N1422       N  0.59872513  0.05281811  0.94477874    -0.26610
N1423       N  0.98245250  0.48535796  0.87493850    -0.26230
N1424       N  0.97635165  0.49472117  0.50790793     0.00810
C1425       C  0.58291724  0.16364763  0.91192188     0.42210
C1426       C  0.86030201  0.45731286  0.93608976    -0.07480
N1427       N  0.51671547  0.44339617  0.90744586    -0.26230
H1428       H  0.93640526  0.45000179  0.84269663     0.06350
N1429       N  0.56659834  0.14861876  0.93758959    -0.47450
H1430       H  0.84336733  0.46192768  0.95321160     0.06340
C1431       C  0.91985508  0.35402925  0.97238231     0.42040
C1432       C  0.97512535  0.10641584  0.97459393    -0.06980
Co1433     Co  0.93714786  0.47859003  0.97269511     0.73820
N1434       N  0.87592812  0.43459420  0.89568922    -0.47170
C1435       C  0.65165519  0.07295778  0.97488283     0.42310
N1436       N  0.96571922  0.47610621  0.53288608    -0.47160
Co1437     Co  0.96197962  0.44602862  0.91003137     0.73890
C1438       C  0.52167872  0.40975541  0.90567503    -0.07480
C1439       C  0.58130520  0.12865641  0.89567515    -0.07050
N1440       N  0.51392403  0.02952099  0.50793429    -0.26570
N1441       N  0.52987799  0.03753971  0.84897730    -0.47340
H1442       H  0.65354733  0.05182649  0.92938235     0.06310
C1443       C  0.91708159  0.38803506  0.98708505    -0.07460
Cl1444     Cl  0.99869998  0.00795693  0.94126948    -0.50460
C1445       C  0.84555037  0.43953834  0.90817971     0.42070
H1446       H  0.55994806  0.06218346  0.54075246     0.06280
N1447       N  0.93537140  0.36853171  0.94643083    -0.47170
C1448       C  0.84436546  0.43130825  0.72754767     0.41920
N1449       N  0.89643271  0.44946907  0.69895703     0.00810
C1450       C  0.59472046  0.47817605  0.72215168    -0.07070
H1451       H  0.56157664  0.07204826  0.78838135     0.06300
C1452       C  0.55015407  0.14276058  0.69204455    -0.07420
Co1453     Co  0.96783023  0.44469002  0.72480203     0.74180
N1454       N  0.52395440  0.02459985  0.75700550    -0.26590
Co1455     Co  0.56097689  0.04171903  0.72034133     0.74070
C1456       C  0.56924011  0.16063212  0.71906141     0.42020
N1457       N  0.96793366  0.05789543  0.65784683     0.00430
N1458       N  0.55837040  0.09733009  0.71574283     0.00530
N1459       N  0.53322327  0.41594144  0.72599971    -0.47440
H1460       H  0.87942958  0.41995153  0.76327674     0.06290
N1461       N  0.98812341  0.48799233  0.75854996     0.00820
N1462       N  0.59721340  0.05809144  0.68394410     0.00560
C1463       C  0.65029693  0.08228393  0.65639170     0.42160
N1464       N  0.93224000  0.02128950  0.65931192    -0.26050
C1465       C  0.94157492  0.36260266  0.69122010    -0.06970
N1466       N  0.85759211  0.44297348  0.70081326    -0.47160
N1467       N  0.63729667  0.06872274  0.68275876    -0.47380
C1468       C  0.92279035  0.34473944  0.66400334     0.41940
N1469       N  0.52665351  0.44828710  0.72484675     0.00810
N1470       N  0.97047135  0.48217647  0.62533676    -0.26070
N1471       N  0.90960388  0.44205777  0.72281592    -0.26570
N1472       N  0.50637003  0.01884911  0.62433656     0.00440
H1473       H  0.93293188  0.43694638  0.59277986     0.06330
H1474       H  0.61458221  0.09193935  0.62053480     0.06370
N1475       N  0.56213861  0.48516681  0.72283181    -0.26610
N1476       N  0.54473598  0.10382043  0.69177961    -0.26230
N1477       N  0.93508271  0.40877200  0.66708718     0.00810
C1478       C  0.99817874  0.01347081  0.80080260     0.42210
C1479       C  0.90019314  0.02892484  0.65972102    -0.07480
N1480       N  0.58369924  0.06509333  0.66011910    -0.26230
H1481       H  0.54438086  0.15775878  0.67458615     0.06350
N1482       N  0.97201147  0.47994152  0.78438635    -0.47450
H1483       H  0.86705970  0.00506911  0.66100224     0.06340
C1484       C  0.99682608  0.49598078  0.58144371     0.42040
C1485       C  0.87869103  0.43003651  0.74209446    -0.06980
Co1486     Co  0.93287401  0.46472994  0.66217749     0.73820
N1487       N  0.96232075  0.09073654  0.65737565    -0.47170
C1488       C  0.57535607  0.43209521  0.72370964     0.42310
N1489       N  0.91915454  0.37491047  0.65018178    -0.47160
Co1490     Co  0.52580498  0.06150271  0.65818044     0.73890
C1491       C  0.61517169  0.08023853  0.64121206    -0.07480
C1492       C  0.53287179  0.04311350  0.78269029    -0.07050
N1493       N  0.94796140  0.40194229  0.69127584    -0.26570
N1494       N  0.57464690  0.13133542  0.73248739    -0.47340
H1495       H  0.62776864  0.50226977  0.72073906     0.06450
C1496       C  0.96182502  0.46521350  0.59912237    -0.07460
Cl1497     Cl  0.99687101  0.00307596  0.69135535    -0.50460
C1498       C  0.92044780  0.07526847  0.65850392     0.42070
H1499       H  0.94725752  0.34766997  0.70876394     0.06280
N1500       N  0.52273372  0.02836206  0.59862387    -0.47170
C1501       C  0.59128853  0.20613146  0.72593392    -0.06660
C1502       C  0.63315775  0.23161492  0.71710993    -0.17790
C1503       C  0.65515281  0.27563258  0.72174679     0.10540
C1504       C  0.63709002  0.29407936  0.73977299    -0.06590
C1505       C  0.59269592  0.26900362  0.74381060    -0.17820
C1506       C  0.56987757  0.22565337  0.73720576     0.10570
S1507       S  0.70154338  0.30451300  0.69996012    -0.32790
S1508       S  0.51410045  0.19681842  0.74519577    -0.32790
H1509       H  0.51089769  0.15771761  0.75080863     0.28580
H1510       H  0.69395553  0.33738987  0.69401022     0.28570
H1511       H  0.64798805  0.21735696  0.70497540     0.19170
H1512       H  0.57564376  0.28189776  0.75429058     0.19170
C1513       C  0.63638638  0.36162465  0.74731797    -0.06660
C1514       C  0.63983368  0.37660911  0.71944947    -0.17790
C1515       C  0.62137796  0.40033435  0.71108573     0.10540
C1516       C  0.59641877  0.40786949  0.73035340    -0.06590
C1517       C  0.58857125  0.38939974  0.75673149    -0.17820
C1518       C  0.60565572  0.36471800  0.76501536     0.10570
S1519       S  0.63079701  0.41982148  0.67550880    -0.32790
S1520       S  0.58107620  0.33387584  0.79641786    -0.32790
H1521       H  0.54231828  0.33265936  0.79446182     0.28580
H1522       H  0.59382233  0.42178492  0.67282156     0.28570
H1523       H  0.65836947  0.37103623  0.70408863     0.19170
H1524       H  0.56761300  0.39350654  0.77093686     0.19170
C1525       C  0.79948408  0.41118824  0.73649700    -0.06660
C1526       C  0.78172212  0.37282831  0.75066087    -0.17790
C1527       C  0.73834559  0.34891901  0.75664356     0.10540
C1528       C  0.71041259  0.36379296  0.74869616    -0.06590
C1529       C  0.73035531  0.40509454  0.73703190    -0.17820
C1530       C  0.77349862  0.42779093  0.72999595     0.10570
S1531       S  0.72081314  0.29890182  0.77367872    -0.32790
S1532       S  0.79363542  0.47860398  0.71351019    -0.32790
H1533       H  0.83443195  0.99743767  0.72496345     0.28580
H1534       H  0.75583866  0.29455235  0.76718605     0.28570
H1535       H  0.80197748  0.36062993  0.75625118     0.19170
H1536       H  0.71338708  0.42144830  0.73392308     0.19170
C1537       C  0.60450656  0.20912515  0.90525183    -0.06660
C1538       C  0.58721653  0.23247985  0.91641192    -0.17790
C1539       C  0.60615954  0.27625712  0.91243439     0.10540
C1540       C  0.64273096  0.29757476  0.89449794    -0.06590
C1541       C  0.66148273  0.27364076  0.88547148    -0.17820
C1542       C  0.64320744  0.23046202  0.89067536     0.10570
S1543       S  0.58575718  0.30223175  0.93492685    -0.32790
S1544       S  0.67255604  0.20563840  0.87951592    -0.32790
H1545       H  0.66572505  0.18330850  0.90475370     0.28580
H1546       H  0.54442202  0.26747279  0.93772731     0.28570
H1547       H  0.55918422  0.21628890  0.92946691     0.19170
H1548       H  0.69046821  0.28892861  0.87325882     0.19170
C1549       C  0.63820272  0.36517829  0.89258628    -0.06660
C1550       C  0.59895937  0.35015435  0.87880552    -0.17790
C1551       C  0.57628760  0.37087626  0.88120328     0.10540
C1552       C  0.59039146  0.40555756  0.89979002    -0.06590
C1553       C  0.62694714  0.41879458  0.91558581    -0.17820
C1554       C  0.65077572  0.39881521  0.91285835     0.10570
S1555       S  0.53213463  0.35395340  0.85779032    -0.32790
S1556       S  0.69223302  0.41355014  0.93847102    -0.32790
H1557       H  0.69298274  0.44956529  0.94992151     0.28580
H1558       H  0.54191882  0.39535248  0.85123256     0.28570
H1559       H  0.58690574  0.32313331  0.86457280     0.19170
H1560       H  0.63607255  0.44431913  0.93078335     0.19170
C1561       C  0.71166018  0.36963972  0.89265461    -0.06660
C1562       C  0.73864202  0.41025979  0.88125019    -0.17790
C1563       C  0.78221598  0.43281841  0.88489496     0.10540
C1564       C  0.80101899  0.41500564  0.90056457    -0.06590
C1565       C  0.77557170  0.37662756  0.91415388    -0.17820
C1566       C  0.73151335  0.35544601  0.91227090     0.10570
S1567       S  0.81158602  0.48570972  0.87076009    -0.32790
S1568       S  0.70548353  0.31782689  0.94036974    -0.32790
H1569       H  0.67562678  0.32997792  0.94600306     0.28580
H1570       H  0.84985058  0.48644072  0.86668260     0.28570
H1571       H  0.72647305  0.42666864  0.87071212     0.19170
H1572       H  0.79012573  0.36515573  0.92858001     0.19170
C1573       C  0.66145274  0.33544969  0.78839120    -0.06660
C1574       C  0.67921004  0.37495561  0.80264808    -0.17790
C1575       C  0.67435542  0.37853495  0.83161990     0.10540
C1576       C  0.66191191  0.34264326  0.84938055    -0.06590
C1577       C  0.64182546  0.30313258  0.83478921    -0.17820
C1578       C  0.64307790  0.29854492  0.80562109     0.10570
S1579       S  0.67060639  0.42471713  0.84178703    -0.32790
S1580       S  0.62359989  0.24447706  0.79380325    -0.32790
H1581       H  0.59020688  0.22459986  0.81331025     0.28580
H1582       H  0.66460059  0.43613521  0.81479112     0.28570
H1583       H  0.69192611  0.40349422  0.79024844     0.19170
H1584       H  0.62235367  0.27411498  0.84576685     0.19170
C1585       C  0.78230176  0.14115776  0.63670086    -0.06660
C1586       C  0.76605187  0.16379536  0.65153546    -0.17790
C1587       C  0.72320467  0.14585304  0.65782032     0.10540
C1588       C  0.69452682  0.10486142  0.64793424    -0.06590
C1589       C  0.70858211  0.08327189  0.63113399    -0.17820
C1590       C  0.75142357  0.10052919  0.62501329     0.10570
S1591       S  0.70730434  0.17697113  0.67881608    -0.32790
S1592       S  0.76398904  0.06723517  0.60362843    -0.32790
H1593       H  0.72476855  0.04402269  0.58994928     0.28580
H1594       H  0.66647787  0.15936535  0.66766860     0.28570
H1595       H  0.78590793  0.19616458  0.65826522     0.19170
H1596       H  0.68578212  0.05167314  0.62366005     0.19170
C1597       C  0.85678138  0.21135258  0.63965000    -0.06660
C1598       C  0.88129781  0.24409784  0.61996877    -0.17790
C1599       C  0.90460882  0.28702037  0.62773555     0.10540
C1600       C  0.90283174  0.29946758  0.65546846    -0.06590
C1601       C  0.88252263  0.26800680  0.67577950    -0.17820
C1602       C  0.86171125  0.22460828  0.66862523     0.10570
S1603       S  0.93983392  0.32424040  0.60209548    -0.32790
S1604       S  0.84180794  0.18756561  0.69733062    -0.32790
H1605       H  0.86378907  0.21667058  0.71923458     0.28580
H1606       H  0.97157917  0.35053882  0.62134947     0.28570
H1607       H  0.88504973  0.23695561  0.59837234     0.19170
H1608       H  0.88283666  0.27749180  0.69751753     0.19170
C1609       C  0.89994529  0.10110588  0.65691018    -0.06660
C1610       C  0.85735395  0.08234189  0.66438380    -0.17790
C1611       C  0.83400528  0.10222307  0.65972693     0.10540
C1612       C  0.85305023  0.14121061  0.64415357    -0.06590
C1613       C  0.89765026  0.16259032  0.64129033    -0.17820
C1614       C  0.92102117  0.14336739  0.64741449     0.10570
S1615       S  0.78184103  0.07391407  0.67540657    -0.32790
S1616       S  0.97646121  0.17306428  0.63887294    -0.32790
H1617       H  0.97269445  0.14415015  0.61759505     0.28580
H1618       H  0.77996151  0.10889430  0.68546298     0.28570
H1619       H  0.84181785  0.05147784  0.67412450     0.19170
H1620       H  0.91443187  0.19318294  0.63122751     0.19170
C1621       C  0.78595125  0.14842577  0.99255224    -0.06660
C1622       C  0.76076953  0.10603127  0.50232418    -0.17790
C1623       C  0.71714664  0.08136103  0.49789303     0.10540
C1624       C  0.69669488  0.09800470  0.98250037    -0.06590
C1625       C  0.72022303  0.13900165  0.97211423    -0.17820
C1626       C  0.76359753  0.16479473  0.97716766     0.10570
S1627       S  0.68949291  0.02865071  0.51226236    -0.32790
S1628       S  0.78436970  0.21721049  0.96295663    -0.32790
H1629       H  0.79475030  0.23851886  0.98899550     0.28580
H1630       H  0.65020090  0.02599693  0.51561223     0.28570
H1631       H  0.77532935  0.09191496  0.51427960     0.19170
H1632       H  0.70406321  0.15142530  0.96005231     0.19170
C1633       C  0.90247071  0.30941277  0.98097578    -0.06660
C1634       C  0.89435643  0.27866694  0.96017380    -0.17790
C1635       C  0.87306219  0.23526978  0.96626504     0.10540
C1636       C  0.85795617  0.22111734  0.99436909    -0.06590
C1637       C  0.87099997  0.25340814  0.51530782    -0.17820
C1638       C  0.89265983  0.29636988  0.50905794     0.10570
S1639       S  0.86589006  0.20116802  0.93626648    -0.32790
S1640       S  0.90945859  0.33254704  0.53855093    -0.32790
H1641       H  0.94994403  0.35981973  0.52738108     0.28580
H1642       H  0.82491068  0.16890144  0.94278568     0.28570
H1643       H  0.90345700  0.28832540  0.93854501     0.19170
H1644       H  0.86702861  0.24649303  0.53738159     0.19170
C1645       C  0.86083010  0.15443741  0.99072473    -0.06660
C1646       C  0.84213358  0.11614055  0.97474835    -0.17790
C1647       C  0.86377896  0.09474055  0.96811207     0.10540
C1648       C  0.90598018  0.11176074  0.97687024    -0.06590
C1649       C  0.92643073  0.15177085  0.98970183    -0.17820
C1650       C  0.90520888  0.17325326  0.49671066     0.10570
S1651       S  0.83568890  0.04620750  0.94786261    -0.32790
S1652       S  0.93835677  0.22402756  0.51380352    -0.32790
H1653       H  0.91508978  0.21522894  0.53883022     0.28580
H1654       H  0.87093569  0.05344430  0.93161798     0.28570
H1655       H  0.81028786  0.10202465  0.96702724     0.19170
H1656       H  0.95922455  0.16592754  0.49575935     0.19170
C1657       C  0.82993473  0.16712820  0.53594022    -0.06660
C1658       C  0.84649516  0.14438777  0.54922513    -0.17790
C1659       C  0.84896984  0.14187456  0.57837167     0.10540
C1660       C  0.83167108  0.16092769  0.59659707    -0.06590
C1661       C  0.81014233  0.17869121  0.58305532    -0.17820
C1662       C  0.80719497  0.18015756  0.55384694     0.10570
S1663       S  0.87434552  0.11246284  0.58769586    -0.32790
S1664       S  0.77576494  0.20139955  0.54088532    -0.32790
H1665       H  0.75130916  0.19476462  0.56535599     0.28580
H1666       H  0.84253884  0.08271048  0.60506051     0.28570
H1667       H  0.85789107  0.12724375  0.53698029     0.19170
H1668       H  0.79582311  0.19273096  0.59586558     0.19170
C1669       C  0.83352744  0.67327425  0.00284825    -0.03020
C1670       C  0.83081740  0.66284782  0.12978634    -0.03020
C1671       C  0.66379744  0.84418497  0.38315710    -0.03020
C1672       C  0.66129369  0.83811722  0.25554191    -0.03020
C1673       C  0.92928647  0.58852952  0.47431385     0.41920
N1674       N  0.94281908  0.53801523  0.47469932     0.00810
C1675       C  0.63687968  0.55677789  0.44653228    -0.07070
H1676       H  0.59308815  0.62839151  0.37475534     0.06300
C1677       C  0.96542812  0.97804430  0.34914107    -0.07420
Co1678     Co  0.53557916  0.56949610  0.47281367     0.74180
N1679       N  0.56485873  0.59605588  0.41353278    -0.26590
Co1680     Co  0.55985498  0.53727593  0.40954351     0.74070
C1681       C  0.99678243  0.51274048  0.33194988     0.42020
N1682       N  0.90765188  0.94983273  0.41374960     0.00430
N1683       N  0.51975563  0.52052133  0.37446271     0.00530
N1684       N  0.62139762  0.57843661  0.48729679    -0.47440
H1685       H  0.00026889  0.63921912  0.47407410     0.06290
N1686       N  0.55614174  0.60837596  0.43766308     0.00820
N1687       N  0.55415735  0.97820362  0.40710094     0.00560
C1688       C  0.56719286  0.92792859  0.40382481     0.42160
N1689       N  0.89883865  0.96250640  0.43768435    -0.26050
C1690       C  0.53050590  0.53508629  0.03383228    -0.06970
N1691       N  0.91146199  0.54595538  0.47476417    -0.47160
N1692       N  0.58546959  0.97044042  0.40503358    -0.47380
C1693       C  0.99857754  0.99944762  0.05033152     0.41940
N1694       N  0.58992471  0.56480294  0.46903999     0.00810
N1695       N  0.93272752  0.92002789  0.46894243    -0.26070
N1696       N  0.98038776  0.57276262  0.47461293    -0.26570
N1697       N  0.94284854  0.90782836  0.44535859     0.00440
H1698       H  0.90338206  0.88853285  0.00718622     0.06330
H1699       H  0.49655951  0.87692358  0.40553758     0.06370
N1700       N  0.59872705  0.55281846  0.44477882    -0.26610
N1701       N  0.98245021  0.98535795  0.37493866    -0.26230
N1702       N  0.97634978  0.99472063  0.00790807     0.00810
C1703       C  0.58291829  0.66364770  0.41192157     0.42210
C1704       C  0.86030011  0.95731271  0.43609013    -0.07480
N1705       N  0.51671335  0.94339593  0.40744566    -0.26230
H1706       H  0.93640238  0.95000220  0.34269702     0.06350
N1707       N  0.56659957  0.64861883  0.43758931    -0.47450
H1708       H  0.84336548  0.96192749  0.45321203     0.06340
C1709       C  0.91985429  0.85402912  0.47238211     0.42040
C1710       C  0.97512710  0.60641619  0.47459350    -0.06980
Co1711     Co  0.93714605  0.97858958  0.47269532     0.73820
N1712       N  0.87592617  0.93459443  0.39568941    -0.47170
C1713       C  0.65165681  0.57295777  0.47488314     0.42310
N1714       N  0.96571715  0.97610574  0.03288624    -0.47160
Co1715     Co  0.96197757  0.94602849  0.41003138     0.73890
C1716       C  0.52167650  0.90975511  0.40567486    -0.07480
C1717       C  0.58130676  0.62865663  0.39567492    -0.07050
N1718       N  0.51392581  0.52952153  0.00793409    -0.26570
N1719       N  0.52988058  0.53753960  0.34897715    -0.47340
H1720       H  0.65354914  0.55182637  0.42938271     0.06310
C1721       C  0.91708044  0.88803460  0.48708504    -0.07460
Cl1722     Cl  0.99870194  0.50795722  0.44126935    -0.50460
C1723       C  0.84554847  0.93953854  0.40818000     0.42070
H1724       H  0.55995019  0.56218386  0.04075208     0.06280
N1725       N  0.93537015  0.86853168  0.44643060    -0.47170
C1726       C  0.84436176  0.93130922  0.22754756     0.41920
N1727       N  0.89642900  0.94946921  0.19895701     0.00810
C1728       C  0.59471611  0.97817504  0.22215232    -0.07070
H1729       H  0.56157974  0.57204830  0.28838115     0.06300
C1730       C  0.55015593  0.64276014  0.19204450    -0.07420
Co1731     Co  0.96782622  0.94469013  0.22480252     0.74180
N1732       N  0.52395804  0.52459975  0.25700522    -0.26590
Co1733     Co  0.56098046  0.54171940  0.22034098     0.74070
C1734       C  0.56924139  0.66063163  0.21906146     0.42020
N1735       N  0.96793676  0.55789554  0.15784671     0.00430
N1736       N  0.55837340  0.59733024  0.21574262     0.00530
N1737       N  0.53321861  0.91594080  0.22600070    -0.47440
H1738       H  0.87942573  0.91995296  0.26327697     0.06290
N1739       N  0.98811952  0.98799268  0.25855030     0.00820
N1740       N  0.59721682  0.55809202  0.18394368     0.00560
C1741       C  0.65030009  0.58228401  0.15639107     0.42160
N1742       N  0.93224315  0.52128962  0.15931198    -0.26050
C1743       C  0.94157187  0.86260290  0.19122084    -0.06970
N1744       N  0.85758847  0.94297387  0.20081308    -0.47160
N1745       N  0.63730001  0.56872311  0.18275820    -0.47380
C1746       C  0.92278815  0.84473960  0.16400393     0.41940
N1747       N  0.52664923  0.94828669  0.22484755     0.00810
N1748       N  0.97046826  0.98217616  0.12533698    -0.26070
N1749       N  0.90960007  0.94205825  0.22281607    -0.26570
N1750       N  0.50637309  0.51884938  0.12433627     0.00440
H1751       H  0.93292914  0.93694601  0.09277999     0.06330
H1752       H  0.61458515  0.59193927  0.12053422     0.06370
N1753       N  0.56213451  0.98516619  0.22283241    -0.26610
N1754       N  0.54473886  0.60382042  0.19177940    -0.26230
N1755       N  0.93507921  0.90877173  0.16708762     0.00810
C1756       C  0.99818214  0.51347033  0.30080228     0.42210
C1757       C  0.90019627  0.52892495  0.15972111    -0.07480
N1758       N  0.58370249  0.56509375  0.16011870    -0.26230
H1759       H  0.54438216  0.65775808  0.17458620     0.06350
N1760       N  0.97200774  0.97994208  0.28438673    -0.47450
H1761       H  0.86706284  0.50506920  0.16100240     0.06340
C1762       C  0.99682346  0.99598041  0.08144400     0.42040
C1763       C  0.87868725  0.93003757  0.24209456    -0.06980
Co1764     Co  0.93287062  0.96472976  0.16217759     0.73820
N1765       N  0.96232383  0.59073662  0.15737543    -0.47170
C1766       C  0.57535133  0.93209418  0.22371057     0.42310
N1767       N  0.91915199  0.87491029  0.15018215    -0.47160
Co1768     Co  0.52580811  0.56150292  0.15818018     0.73890
C1769       C  0.61517478  0.58023868  0.14121153    -0.07480
C1770       C  0.53287515  0.54311331  0.28269004    -0.07050
N1771       N  0.94795760  0.90194223  0.19127647    -0.26570
N1772       N  0.57464902  0.63133537  0.23248736    -0.47340
H1773       H  0.62776436  0.00226852  0.22073953     0.06450
C1774       C  0.96182220  0.96521316  0.09912258    -0.07460
Cl1775     Cl  0.99687451  0.50307611  0.19135506    -0.50460
C1776       C  0.92045090  0.57526859  0.15850383     0.42070
H1777       H  0.94725481  0.84767056  0.20876473     0.06280
N1778       N  0.52273650  0.52836239  0.09862352    -0.47170
C1779       C  0.59128848  0.70613088  0.22593411    -0.06660
C1780       C  0.63315755  0.73161540  0.21711019    -0.17790
C1781       C  0.65515119  0.77563308  0.22174674     0.10540
C1782       C  0.63708728  0.79407893  0.23977276    -0.06590
C1783       C  0.59269324  0.76900213  0.24381013    -0.17820
C1784       C  0.56987617  0.72565174  0.23720546     0.10570
S1785       S  0.70154122  0.80451460  0.19995975    -0.32790
S1786       S  0.51409895  0.69681526  0.24519510    -0.32790
H1787       H  0.51089751  0.65771511  0.25080817     0.28580
H1788       H  0.69395180  0.83739045  0.19400992     0.28570
H1789       H  0.64798876  0.71735821  0.20497581     0.19170
H1790       H  0.57564020  0.78189555  0.25428980     0.19170
C1791       C  0.63638181  0.86162338  0.24731788    -0.06660
C1792       C  0.63982913  0.87660832  0.21944953    -0.17790
C1793       C  0.62137322  0.90033353  0.21108611     0.10540
C1794       C  0.59641372  0.90786801  0.23035392    -0.06590
C1795       C  0.58856580  0.88939735  0.25673172    -0.17820
C1796       C  0.60565059  0.86471573  0.26501528     0.10570
S1797       S  0.63079235  0.91982148  0.17550940    -0.32790
S1798       S  0.58107111  0.83387270  0.29641750    -0.32790
H1799       H  0.54231323  0.83265639  0.29446191     0.28580
H1800       H  0.59381711  0.92178393  0.17282221     0.28570
H1801       H  0.65836520  0.87103602  0.20408859     0.19170
H1802       H  0.56760723  0.89350352  0.27093715     0.19170
C1803       C  0.79948031  0.91118902  0.23649681    -0.06660
C1804       C  0.78171873  0.87282935  0.25066094    -0.17790
C1805       C  0.73834226  0.84891975  0.25664367     0.10540
C1806       C  0.71040887  0.86379317  0.24869614    -0.06590
C1807       C  0.73035118  0.90509459  0.23703166    -0.17820
C1808       C  0.77349446  0.92779121  0.22999556     0.10570
S1809       S  0.72081049  0.79890281  0.27367899    -0.32790
S1810       S  0.79363065  0.97860379  0.21350927    -0.32790
H1811       H  0.83443645  0.49743734  0.22496473     0.28580
H1812       H  0.75583571  0.79455321  0.26718546     0.28570
H1813       H  0.80197434  0.86063134  0.25625144     0.19170
H1814       H  0.71338262  0.92144798  0.23392269     0.19170
C1815       C  0.60450674  0.70912514  0.40525142    -0.06660
C1816       C  0.58721612  0.73247924  0.41641167    -0.17790
C1817       C  0.60615840  0.77625646  0.41243422     0.10540
C1818       C  0.64272966  0.79757463  0.39449769    -0.06590
C1819       C  0.66148204  0.77364127  0.38547105    -0.17820
C1820       C  0.64320744  0.73046258  0.39067481     0.10570
S1821       S  0.58575555  0.80223046  0.43492686    -0.32790
S1822       S  0.67255664  0.70563978  0.37951500    -0.32790
H1823       H  0.66572649  0.68331007  0.40475277     0.28580
H1824       H  0.54442083  0.76747092  0.43772776     0.28570
H1825       H  0.55918395  0.71628788  0.42946675     0.19170
H1826       H  0.69046742  0.78892957  0.37325830     0.19170
C1827       C  0.63820056  0.86517780  0.39258648    -0.06660
C1828       C  0.59895686  0.85015336  0.37880608    -0.17790
C1829       C  0.57628503  0.87087522  0.38120373     0.10540
C1830       C  0.59038915  0.90555697  0.39979011    -0.06590
C1831       C  0.62694510  0.91879440  0.41558568    -0.17820
C1832       C  0.65077383  0.89881516  0.41285823     0.10570
S1833       S  0.53213181  0.85395184  0.35779092    -0.32790
S1834       S  0.69223213  0.91355135  0.43847030    -0.32790
H1835       H  0.69298118  0.94956607  0.44992097     0.28580
H1836       H  0.54191607  0.89535077  0.35123265     0.28570
H1837       H  0.58690309  0.82313205  0.36457357     0.19170
H1838       H  0.63607077  0.94431934  0.43078294     0.19170
C1839       C  0.71165835  0.86963974  0.39265428    -0.06660
C1840       C  0.73864044  0.91025929  0.38124905    -0.17790
C1841       C  0.78221439  0.93281805  0.38489430     0.10540
C1842       C  0.80101709  0.91500589  0.40056482    -0.06590
C1843       C  0.77556960  0.87662822  0.41415451    -0.17820
C1844       C  0.73151130  0.85544659  0.41227118     0.10570
S1845       S  0.81158468  0.98570889  0.37075870    -0.32790
S1846       S  0.70548117  0.81782763  0.44037007    -0.32790
H1847       H  0.67562457  0.82997893  0.44600312     0.28580
H1848       H  0.84984939  0.98643990  0.36668208     0.28570
H1849       H  0.72647232  0.92666716  0.37070991     0.19170
H1850       H  0.79012341  0.86515673  0.42858106     0.19170
C1851       C  0.66144899  0.83544932  0.28839106    -0.06660
C1852       C  0.67920559  0.87495524  0.30264790    -0.17790
C1853       C  0.67435163  0.87853454  0.33161981     0.10540
C1854       C  0.66190928  0.84264305  0.34938043    -0.06590
C1855       C  0.64182299  0.80313233  0.33478914    -0.17820
C1856       C  0.64307492  0.79854463  0.30562101     0.10570
S1857       S  0.67060295  0.92471675  0.34178748    -0.32790
S1858       S  0.62359722  0.74447682  0.29380326    -0.32790
H1859       H  0.59020406  0.72459966  0.31331016     0.28580
H1860       H  0.66459540  0.93613418  0.31479184     0.28570
H1861       H  0.69192092  0.90349378  0.29024825     0.19170
H1862       H  0.62235177  0.77411467  0.34576685     0.19170
C1863       C  0.78230504  0.64115803  0.13670074    -0.06660
C1864       C  0.76605493  0.66379550  0.15153525    -0.17790
C1865       C  0.72320766  0.64585318  0.15781979     0.10540
C1866       C  0.69452996  0.60486158  0.14793360    -0.06590
C1867       C  0.70858549  0.58327209  0.13113353    -0.17820
C1868       C  0.75142705  0.60052946  0.12501307     0.10570
S1869       S  0.70730700  0.67697123  0.17881529    -0.32790
S1870       S  0.76399297  0.56723558  0.10362841    -0.32790
H1871       H  0.72477252  0.54402267  0.08994926     0.28580
H1872       H  0.66648088  0.65936574  0.16766727     0.28570
H1873       H  0.78591081  0.69616468  0.15826511     0.19170
H1874       H  0.68578563  0.55167331  0.12365956     0.19170
C1875       C  0.85678434  0.71135297  0.13965017    -0.06660
C1876       C  0.88130022  0.74409864  0.11996908    -0.17790
C1877       C  0.90460957  0.78702125  0.12773597     0.10540
C1878       C  0.90283143  0.79946794  0.15546886    -0.06590
C1879       C  0.88252344  0.76800681  0.17577982    -0.17820
C1880       C  0.86171376  0.72460839  0.16862544     0.10570
S1881       S  0.93983393  0.82424227  0.10209608    -0.32790
S1882       S  0.84181153  0.68756551  0.19733071    -0.32790
H1883       H  0.86379257  0.71667060  0.21923464     0.28580
H1884       H  0.97157848  0.85054147  0.12135025     0.28570
H1885       H  0.88505268  0.73695677  0.09837267     0.19170
H1886       H  0.88283684  0.77749141  0.19751787     0.19170
C1887       C  0.89994841  0.60110604  0.15691002    -0.06660
C1888       C  0.85735702  0.58234201  0.16438350    -0.17790
C1889       C  0.83400844  0.60222330  0.15972671     0.10540
C1890       C  0.85305349  0.64121099  0.14415348    -0.06590
C1891       C  0.89765353  0.66259074  0.14129042    -0.17820
C1892       C  0.92102437  0.64336768  0.14741452     0.10570
S1893       S  0.78184425  0.57391437  0.17540647    -0.32790
S1894       S  0.97646450  0.67306469  0.13887326    -0.32790
H1895       H  0.97269798  0.64415086  0.11759521     0.28580
H1896       H  0.77996466  0.60889460  0.18546278     0.28570
H1897       H  0.84182084  0.55147788  0.17412411     0.19170
H1898       H  0.91443519  0.69318352  0.13122780     0.19170
C1899       C  0.78595291  0.64842595  0.49255241    -0.06660
C1900       C  0.76077125  0.60603143  0.00232436    -0.17790
C1901       C  0.71714833  0.58136109  0.99789326     0.10540
C1902       C  0.69669649  0.59800474  0.48250072    -0.06590
C1903       C  0.72022448  0.63900175  0.47211469    -0.17820
C1904       C  0.76359898  0.66479490  0.47716804     0.10570
S1905       S  0.68949478  0.52865069  0.01226247    -0.32790
S1906       S  0.78437077  0.71721073  0.46295720    -0.32790
H1907       H  0.79475180  0.73851902  0.48899609     0.28580
H1908       H  0.65020265  0.52599666  0.01561231     0.28570
H1909       H  0.77533120  0.59191517  0.01427969     0.19170
H1910       H  0.70406452  0.65142539  0.46005290     0.19170
C1911       C  0.90247095  0.80941281  0.48097557    -0.06660
C1912       C  0.89435670  0.77866706  0.46017354    -0.17790
C1913       C  0.87306313  0.73526993  0.46626485     0.10540
C1914       C  0.85795771  0.72111752  0.49436899    -0.06590
C1915       C  0.87100164  0.75340835  0.01530777    -0.17820
C1916       C  0.89266089  0.79637004  0.00905782     0.10570
S1917       S  0.86589082  0.70116818  0.43626625    -0.32790
S1918       S  0.90946024  0.83254738  0.03855071    -0.32790
H1919       H  0.94994514  0.85982052  0.02738026     0.28580
H1920       H  0.82491161  0.66890142  0.44278567     0.28570
H1921       H  0.90345667  0.78832549  0.43854469     0.19170
H1922       H  0.86703091  0.74649330  0.03738155     0.19170
C1923       C  0.86083183  0.65443770  0.49072439    -0.06660
C1924       C  0.84213516  0.61614071  0.47474814    -0.17790
C1925       C  0.86378053  0.59474071  0.46811179     0.10540
C1926       C  0.90598189  0.61176106  0.47686971    -0.06590
C1927       C  0.92643256  0.65177133  0.48970107    -0.17820
C1928       C  0.90521068  0.67325377  0.99670999     0.10570
S1929       S  0.83569027  0.54620744  0.44786259    -0.32790
S1930       S  0.93835874  0.72402827  0.01380256    -0.32790
H1931       H  0.91509238  0.71522957  0.03882955     0.28580
H1932       H  0.87093686  0.55344413  0.43161777     0.28570
H1933       H  0.81028932  0.60202467  0.46702725     0.19170
H1934       H  0.95922645  0.66592823  0.99575837     0.19170
C1935       C  0.82993697  0.66712850  0.03594016    -0.06660
C1936       C  0.84649792  0.64438843  0.04922493    -0.17790
C1937       C  0.84897322  0.64187555  0.07837145     0.10540
C1938       C  0.83167446  0.66092850  0.09659702    -0.06590
C1939       C  0.81014541  0.67869185  0.08305544    -0.17820
C1940       C  0.80719744  0.68015786  0.05384709     0.10570
S1941       S  0.87434981  0.61246466  0.08769546    -0.32790
S1942       S  0.77576691  0.70139948  0.04088579    -0.32790
H1943       H  0.75131141  0.69476440  0.06535662     0.28580
H1944       H  0.84254325  0.58271173  0.10505993     0.28570
H1945       H  0.85789384  0.62724451  0.03697999     0.19170
H1946       H  0.79582629  0.69273158  0.09586580     0.19170
C1947       C  0.83352748  0.67327426  0.50284823    -0.03020
C1948       C  0.83081742  0.66284783  0.62978632    -0.03020
C1949       C  0.66379742  0.84418496  0.88315711    -0.03020
C1950       C  0.66129370  0.83811723  0.75554192    -0.03020
C1951       C  0.92928645  0.58852954  0.97431386     0.41920
N1952       N  0.94281905  0.53801524  0.97469931     0.00810
C1953       C  0.63687965  0.55677788  0.94653229    -0.07070
H1954       H  0.59308812  0.62839150  0.87475534     0.06300
C1955       C  0.96542810  0.97804427  0.84914108    -0.07420
Co1956     Co  0.53557912  0.56949610  0.97281367     0.74180
N1957       N  0.56485870  0.59605588  0.91353278    -0.26590
Co1958     Co  0.55985496  0.53727592  0.90954351     0.74070
C1959       C  0.99678243  0.51274048  0.83194987     0.42020
N1960       N  0.90765185  0.94983273  0.91374960     0.00430
N1961       N  0.51975562  0.52052132  0.87446271     0.00530
N1962       N  0.62139758  0.57843660  0.98729680    -0.47440
H1963       H  0.00026887  0.63921913  0.97407411     0.06290
N1964       N  0.55614171  0.60837596  0.93766308     0.00820
N1965       N  0.55415733  0.97820360  0.90710097     0.00560
C1966       C  0.56719283  0.92792858  0.90382486     0.42160
N1967       N  0.89883862  0.96250642  0.93768434    -0.26050
C1968       C  0.53050595  0.53508630  0.53383228    -0.06970
N1969       N  0.91146196  0.54595541  0.97476417    -0.47160
N1970       N  0.58546957  0.97044041  0.90503362    -0.47380
C1971       C  0.99857757  0.99944761  0.55033152     0.41940
N1972       N  0.58992467  0.56480294  0.96904000     0.00810
N1973       N  0.93272747  0.92002791  0.96894245    -0.26070
N1974       N  0.98038772  0.57276263  0.97461293    -0.26570
N1975       N  0.94284850  0.90782836  0.94535861     0.00440
H1976       H  0.90338213  0.88853281  0.50718621     0.06330
H1977       H  0.49655949  0.87692356  0.90553762     0.06370
N1978       N  0.59872702  0.55281846  0.94477882    -0.26610
N1979       N  0.98245019  0.98535792  0.87493867    -0.26230
N1980       N  0.97634982  0.99472060  0.50790807     0.00810
C1981       C  0.58291826  0.66364769  0.91192157     0.42210
C1982       C  0.86030009  0.95731275  0.93609011    -0.07480
N1983       N  0.51671332  0.94339591  0.90744569    -0.26230
H1984       H  0.93640237  0.95000218  0.84269702     0.06350
N1985       N  0.56659954  0.64861883  0.93758930    -0.47450
H1986       H  0.84336546  0.96192754  0.95321199     0.06340
C1987       C  0.91985421  0.85402912  0.97238214     0.42040
C1988       C  0.97512708  0.60641621  0.97459351    -0.06980
Co1989     Co  0.93714601  0.97858961  0.97269532     0.73820
N1990       N  0.87592615  0.93459443  0.89568941    -0.47170
C1991       C  0.65165677  0.57295777  0.97488315     0.42310
N1992       N  0.96571718  0.97610571  0.53288624    -0.47160
Co1993     Co  0.96197754  0.94602847  0.91003139     0.73890
C1994       C  0.52167648  0.90975509  0.90567489    -0.07480
C1995       C  0.58130673  0.62865662  0.89567492    -0.07050
N1996       N  0.51392586  0.52952153  0.50793409    -0.26570
N1997       N  0.52988058  0.53753960  0.84897715    -0.47340
H1998       H  0.65354911  0.55182636  0.92938272     0.06310
C1999       C  0.91708037  0.88803463  0.98708506    -0.07460
Cl2000     Cl  0.99870190  0.50795722  0.94126935    -0.50460
C2001       C  0.84554845  0.93953857  0.90817998     0.42070
H2002       H  0.55995023  0.56218388  0.54075209     0.06280
N2003       N  0.93537009  0.86853168  0.94643063    -0.47170
C2004       C  0.84436176  0.93130922  0.72754756     0.41920
N2005       N  0.89642900  0.94946920  0.69895701     0.00810
C2006       C  0.59471611  0.97817504  0.72215233    -0.07070
H2007       H  0.56157975  0.57204830  0.78838115     0.06300
C2008       C  0.55015592  0.64276014  0.69204450    -0.07420
Co2009     Co  0.96782622  0.94469012  0.72480252     0.74180
N2010       N  0.52395806  0.52459975  0.75700522    -0.26590
Co2011     Co  0.56098048  0.54171941  0.72034098     0.74070
C2012       C  0.56924139  0.66063163  0.71906146     0.42020
N2013       N  0.96793678  0.55789555  0.65784671     0.00430
N2014       N  0.55837341  0.59733025  0.71574262     0.00530
N2015       N  0.53321861  0.91594080  0.72600070    -0.47440
H2016       H  0.87942573  0.91995296  0.76327697     0.06290
N2017       N  0.98811951  0.98799267  0.75855030     0.00820
N2018       N  0.59721684  0.55809204  0.68394368     0.00560
C2019       C  0.65030010  0.58228403  0.65639106     0.42160
N2020       N  0.93224316  0.52128961  0.65931197    -0.26050
C2021       C  0.94157186  0.86260290  0.69122085    -0.06970
N2022       N  0.85758847  0.94297386  0.70081308    -0.47160
N2023       N  0.63730003  0.56872313  0.68275820    -0.47380
C2024       C  0.92278815  0.84473960  0.66400394     0.41940
N2025       N  0.52664923  0.94828669  0.72484756     0.00810
N2026       N  0.97046827  0.98217616  0.62533698    -0.26070
N2027       N  0.90960007  0.94205825  0.72281607    -0.26570
N2028       N  0.50637312  0.51884940  0.62433627     0.00440
H2029       H  0.93292916  0.93694600  0.59278000     0.06330
H2030       H  0.61458516  0.59193928  0.62053421     0.06370
N2031       N  0.56213451  0.98516620  0.72283242    -0.26610
N2032       N  0.54473887  0.60382043  0.69177941    -0.26230
N2033       N  0.93507921  0.90877173  0.66708763     0.00810
C2034       C  0.99818215  0.51347033  0.80080228     0.42210
C2035       C  0.90019628  0.52892494  0.65972110    -0.07480
N2036       N  0.58370251  0.56509377  0.66011870    -0.26230
H2037       H  0.54438215  0.65775808  0.67458620     0.06350
N2038       N  0.97200773  0.97994207  0.78438673    -0.47450
H2039       H  0.86706285  0.50506919  0.66100238     0.06340
C2040       C  0.99682348  0.99598040  0.58144401     0.42040
C2041       C  0.87868725  0.93003757  0.74209456    -0.06980
Co2042     Co  0.93287062  0.96472975  0.66217760     0.73820
N2043       N  0.96232383  0.59073662  0.65737543    -0.47170
C2044       C  0.57535133  0.93209419  0.72371058     0.42310
N2045       N  0.91915199  0.87491029  0.65018215    -0.47160
Co2046     Co  0.52580812  0.56150293  0.65818018     0.73890
C2047       C  0.61517480  0.58023870  0.64121153    -0.07480
C2048       C  0.53287516  0.54311331  0.78269004    -0.07050
N2049       N  0.94795760  0.90194223  0.69127648    -0.26570
N2050       N  0.57464902  0.63133537  0.73248737    -0.47340
H2051       H  0.62776436  0.00226853  0.72073954     0.06450
C2052       C  0.96182222  0.96521315  0.59912258    -0.07460
Cl2053     Cl  0.99687454  0.50307612  0.69135505    -0.50460
C2054       C  0.92045091  0.57526858  0.65850382     0.42070
H2055       H  0.94725480  0.84767055  0.70876474     0.06280
N2056       N  0.52273653  0.52836241  0.59862352    -0.47170
C2057       C  0.59128847  0.70613088  0.72593412    -0.06660
C2058       C  0.63315755  0.73161540  0.71711020    -0.17790
C2059       C  0.65515119  0.77563308  0.72174674     0.10540
C2060       C  0.63708728  0.79407894  0.73977276    -0.06590
C2061       C  0.59269324  0.76900213  0.74381013    -0.17820
C2062       C  0.56987616  0.72565174  0.73720546     0.10570
S2063       S  0.70154121  0.80451460  0.69995976    -0.32790
S2064       S  0.51409895  0.69681527  0.74519510    -0.32790
H2065       H  0.51089750  0.65771511  0.75080817     0.28580
H2066       H  0.69395179  0.83739044  0.69400992     0.28570
H2067       H  0.64798876  0.71735821  0.70497582     0.19170
H2068       H  0.57564020  0.78189556  0.75428981     0.19170
C2069       C  0.63638181  0.86162339  0.74731788    -0.06660
C2070       C  0.63982913  0.87660833  0.71944953    -0.17790
C2071       C  0.62137321  0.90033353  0.71108612     0.10540
C2072       C  0.59641372  0.90786802  0.73035393    -0.06590
C2073       C  0.58856582  0.88939737  0.75673173    -0.17820
C2074       C  0.60565060  0.86471575  0.76501529     0.10570
S2075       S  0.63079233  0.91982147  0.67550940    -0.32790
S2076       S  0.58107113  0.83387272  0.79641751    -0.32790
H2077       H  0.54231325  0.83265640  0.79446191     0.28580
H2078       H  0.59381710  0.92178392  0.67282222     0.28570
H2079       H  0.65836519  0.87103601  0.70408859     0.19170
H2080       H  0.56760725  0.89350355  0.77093716     0.19170
C2081       C  0.79948030  0.91118902  0.73649680    -0.06660
C2082       C  0.78171873  0.87282935  0.75066094    -0.17790
C2083       C  0.73834226  0.84891975  0.75664367     0.10540
C2084       C  0.71040887  0.86379318  0.74869614    -0.06590
C2085       C  0.73035118  0.90509459  0.73703166    -0.17820
C2086       C  0.77349446  0.92779120  0.72999555     0.10570
S2087       S  0.72081049  0.79890281  0.77367899    -0.32790
S2088       S  0.79363065  0.97860378  0.71350926    -0.32790
H2089       H  0.83443648  0.49743733  0.72496472     0.28580
H2090       H  0.75583570  0.79455321  0.76718546     0.28570
H2091       H  0.80197434  0.86063134  0.75625144     0.19170
H2092       H  0.71338262  0.92144798  0.73392268     0.19170
C2093       C  0.60450670  0.70912513  0.90525141    -0.06660
C2094       C  0.58721608  0.73247922  0.91641166    -0.17790
C2095       C  0.60615837  0.77625644  0.91243421     0.10540
C2096       C  0.64272963  0.79757462  0.89449769    -0.06590
C2097       C  0.66148200  0.77364126  0.88547104    -0.17820
C2098       C  0.64320740  0.73046257  0.89067480     0.10570
S2099       S  0.58575549  0.80223044  0.93492684    -0.32790
S2100       S  0.67255660  0.70563977  0.87951499    -0.32790
H2101       H  0.66572647  0.68331007  0.90475276     0.28580
H2102       H  0.54442076  0.76747090  0.93772770     0.28570
H2103       H  0.55918392  0.71628786  0.92946674     0.19170
H2104       H  0.69046738  0.78892956  0.87325829     0.19170
C2105       C  0.63820053  0.86517779  0.89258648    -0.06660
C2106       C  0.59895686  0.85015339  0.87880606    -0.17790
C2107       C  0.57628504  0.87087526  0.88120372     0.10540
C2108       C  0.59038913  0.90555696  0.89979014    -0.06590
C2109       C  0.62694505  0.91879434  0.91558574    -0.17820
C2110       C  0.65077377  0.89881510  0.91285828     0.10570
S2111       S  0.53213186  0.85395194  0.85779089    -0.32790
S2112       S  0.69223199  0.91355117  0.93847039    -0.32790
H2113       H  0.69298101  0.94956584  0.94992112     0.28580
H2114       H  0.54191613  0.89535090  0.85123267     0.28570
H2115       H  0.58690310  0.82313211  0.86457353     0.19170
H2116       H  0.63607069  0.94431925  0.93078302     0.19170
C2117       C  0.71165832  0.86963974  0.89265430    -0.06660
C2118       C  0.73864039  0.91025933  0.88124915    -0.17790
C2119       C  0.78221433  0.93281812  0.88489437     0.10540
C2120       C  0.80101707  0.91500591  0.90056480    -0.06590
C2121       C  0.77556961  0.87662819  0.91415444    -0.17820
C2122       C  0.73151130  0.85544655  0.91227114     0.10570
S2123       S  0.81158458  0.98570902  0.87075886    -0.32790
S2124       S  0.70548122  0.81782755  0.94037001    -0.32790
H2125       H  0.67562458  0.82997879  0.94600310     0.28580
H2126       H  0.84984931  0.98644009  0.86668219     0.28570
H2127       H  0.72647214  0.92666730  0.87071004     0.19170
H2128       H  0.79012345  0.86515667  0.92858094     0.19170
C2129       C  0.66144900  0.83544933  0.78839106    -0.06660
C2130       C  0.67920562  0.87495525  0.80264791    -0.17790
C2131       C  0.67435167  0.87853456  0.83161981     0.10540
C2132       C  0.66190928  0.84264306  0.84938043    -0.06590
C2133       C  0.64182298  0.80313234  0.83478915    -0.17820
C2134       C  0.64307491  0.79854464  0.80562101     0.10570
S2135       S  0.67060299  0.92471677  0.84178748    -0.32790
S2136       S  0.62359721  0.74447682  0.79380327    -0.32790
H2137       H  0.59020405  0.72459966  0.81331017     0.28580
H2138       H  0.66459543  0.93613419  0.81479184     0.28570
H2139       H  0.69192096  0.90349379  0.79024825     0.19170
H2140       H  0.62235172  0.77411468  0.84576685     0.19170
C2141       C  0.78230505  0.64115804  0.63670072    -0.06660
C2142       C  0.76605494  0.66379552  0.65153523    -0.17790
C2143       C  0.72320768  0.64585320  0.65781978     0.10540
C2144       C  0.69452998  0.60486160  0.64793359    -0.06590
C2145       C  0.70858550  0.58327211  0.63113351    -0.17820
C2146       C  0.75142706  0.60052948  0.62501304     0.10570
S2147       S  0.70730703  0.67697125  0.67881528    -0.32790
S2148       S  0.76399297  0.56723560  0.60362837    -0.32790
H2149       H  0.72477252  0.54402270  0.58994922     0.28580
H2150       H  0.66648090  0.65936577  0.66766726     0.28570
H2151       H  0.78591083  0.69616470  0.65826509     0.19170
H2152       H  0.68578563  0.55167333  0.62365953     0.19170
C2153       C  0.85678436  0.71135298  0.63965016    -0.06660
C2154       C  0.88130025  0.74409865  0.61996908    -0.17790
C2155       C  0.90460960  0.78702126  0.62773598     0.10540
C2156       C  0.90283144  0.79946793  0.65546887    -0.06590
C2157       C  0.88252344  0.76800680  0.67577982    -0.17820
C2158       C  0.86171376  0.72460838  0.66862544     0.10570
S2159       S  0.93983398  0.82424228  0.60209611    -0.32790
S2160       S  0.84181151  0.68756549  0.69733069    -0.32790
H2161       H  0.86379253  0.71667057  0.71923463     0.28580
H2162       H  0.97157852  0.85054148  0.62135028     0.28570
H2163       H  0.88505273  0.73695678  0.59837267     0.19170
H2164       H  0.88283682  0.77749139  0.69751788     0.19170
C2165       C  0.89994841  0.60110603  0.65691001    -0.06660
C2166       C  0.85735702  0.58234199  0.66438348    -0.17790
C2167       C  0.83400844  0.60222328  0.65972668     0.10540
C2168       C  0.85305350  0.64121098  0.64415346    -0.06590
C2169       C  0.89765354  0.66259073  0.64129041    -0.17820
C2170       C  0.92102438  0.64336767  0.64741452     0.10570
S2171       S  0.78184424  0.57391435  0.67540643    -0.32790
S2172       S  0.97646451  0.67306468  0.63887327    -0.32790
H2173       H  0.97269800  0.64415086  0.61759521     0.28580
H2174       H  0.77996465  0.60889458  0.68546275     0.28570
H2175       H  0.84182083  0.55147786  0.67412407     0.19170
H2176       H  0.91443521  0.69318352  0.63122779     0.19170
C2177       C  0.78595287  0.64842594  0.99255243    -0.06660
C2178       C  0.76077129  0.60603145  0.50232435    -0.17790
C2179       C  0.71714837  0.58136111  0.49789325     0.10540
C2180       C  0.69669645  0.59800473  0.98250073    -0.06590
C2181       C  0.72022444  0.63900174  0.97211470    -0.17820
C2182       C  0.76359894  0.66479489  0.97716805     0.10570
S2183       S  0.68949482  0.52865070  0.51226247    -0.32790
S2184       S  0.78437074  0.71721072  0.96295722    -0.32790
H2185       H  0.79475169  0.73851899  0.98899611     0.28580
H2186       H  0.65020269  0.52599667  0.51561230     0.28570
H2187       H  0.77533124  0.59191518  0.51427968     0.19170
H2188       H  0.70406449  0.65142538  0.96005291     0.19170
C2189       C  0.90247086  0.80941282  0.98097561    -0.06660
C2190       C  0.89435667  0.77866707  0.96017358    -0.17790
C2191       C  0.87306311  0.73526995  0.96626489     0.10540
C2192       C  0.85795766  0.72111752  0.99436902    -0.06590
C2193       C  0.87100175  0.75340836  0.51530774    -0.17820
C2194       C  0.89266104  0.79637005  0.50905778     0.10570
S2195       S  0.86589083  0.70116821  0.93626628    -0.32790
S2196       S  0.90946054  0.83254741  0.53855067    -0.32790
H2197       H  0.94994539  0.85982053  0.52738015     0.28580
H2198       H  0.82491162  0.66890146  0.94278568     0.28570
H2199       H  0.90345668  0.78832552  0.93854474     0.19170
H2200       H  0.86703104  0.74649331  0.53738152     0.19170
C2201       C  0.86083179  0.65443770  0.99072441    -0.06660
C2202       C  0.84213513  0.61614072  0.97474816    -0.17790
C2203       C  0.86378051  0.59474073  0.96811180     0.10540
C2204       C  0.90598186  0.61176108  0.97686972    -0.06590
C2205       C  0.92643254  0.65177135  0.98970109    -0.17820
C2206       C  0.90521071  0.67325375  0.49670997     0.10570
S2207       S  0.83569025  0.54620746  0.94786260    -0.32790
S2208       S  0.93835878  0.72402825  0.51380253    -0.32790
H2209       H  0.91509247  0.71522953  0.53882955     0.28580
H2210       H  0.87093683  0.55344416  0.93161777     0.28570
H2211       H  0.81028930  0.60202468  0.96702726     0.19170
H2212       H  0.95922647  0.66592820  0.49575835     0.19170
C2213       C  0.82993702  0.66712852  0.53594015    -0.06660
C2214       C  0.84649795  0.64438844  0.54922491    -0.17790
C2215       C  0.84897325  0.64187556  0.57837144     0.10540
C2216       C  0.83167449  0.66092852  0.59659700    -0.06590
C2217       C  0.81014546  0.67869189  0.58305542    -0.17820
C2218       C  0.80719750  0.68015791  0.55384707     0.10570
S2219       S  0.87434982  0.61246465  0.58769544    -0.32790
S2220       S  0.77576701  0.70139957  0.54088577    -0.32790
H2221       H  0.75131152  0.69476451  0.56535660     0.28580
H2222       H  0.84254323  0.58271171  0.60505990     0.28570
H2223       H  0.85789386  0.62724451  0.53697997     0.19170
H2224       H  0.79582635  0.69273163  0.59586578     0.19170
loop_ 
_geom_bond_atom_site_label_1 
_geom_bond_atom_site_label_2 
_geom_bond_distance 
_geom_bond_site_symmetry_2 
_ccdc_geom_bond_type 
C1          C267   1.585       .  S
C1          C509   1.586   1_554  S
C1          C524   1.565   1_554  S
C1          C533   1.580   1_554  S
C2          C195   1.573       .  S
C2          C207   1.595       .  S
C2          C222   1.565       .  S
C2          C270   1.577       .  S
C3          C150   1.574       .  S
C3          C159   1.547       .  S
C3          C171   1.583       .  S
C3          C186   1.604       .  S
C4          C114   1.572       .  S
C4          C123   1.598       .  S
C4          C138   1.588       .  S
C4          C183   1.564       .  S
C5           N23   1.350       .  A
C5           C42   1.466       .  S
C5          C258   1.487       .  S
N6           N23   1.325       .  A
N6           N28   1.319       .  A
N6         Co599   2.079   1_545  S
C7           N32   1.339       .  A
C7           C45   1.457       .  S
C7           H52   1.081       .  S
H8           C49   1.081       .  S
C9           N33   1.341       .  A
C9          C569   1.459       .  S
C9           H38   1.082       .  S
Co10         N18   2.081       .  S
Co10         N26   2.097       .  S
Co10       N1140   2.094   1_455  S
Co10        N328   2.101       .  S
Co10      Cl1166   2.448   1_455  S
N11          C49   1.339       .  A
N11          N18   1.320       .  A
N11         Co12   2.071       .  S
Co12         N15   2.104       .  S
Co12         N32   2.088       .  S
Co12        N575   2.066   1_545  S
Co12      Cl1166   2.449   1_455  S
C13        N1163   1.354       .  A
C13          C88   1.479       .  S
C13         C565   1.459   1_545  S
N14          N21   1.319       .  A
N14          N44   1.324       .  A
N14         Co47   2.078       .  S
N15          N51   1.329       .  A
N15        N1701   1.321   1_445  A
N16          C45   1.355       .  A
N16          N26   1.327       .  A
H17          C42   1.081       .  S
N18          N39   1.320       .  A
N19          N37   1.317       .  A
N19          N24   1.322       .  A
N19        Co568   2.066       .  S
C20          N24   1.346       .  A
C20          C48   1.455       .  S
C20         C162   1.462       .  S
N21          C36   1.334       .  A
N21         Co43   2.067       .  S
C22          N50   1.344       .  A
C22        C1693   1.465   1_445  S
C22          H56   1.082       .  S
C25          N46   1.352       .  A
C25          C94   1.482       .  S
C25        C1690   1.465       .  S
N26          N32   1.321       .  A
N27          C53   1.334       .  A
N27          N29   1.318       .  A
N27         Co43   2.072       .  S
N28          C42   1.341       .  A
N28       Co1122   2.094       .  S
N29          N57   1.322       .  A
N29         Co47   2.075       .  S
H30         C331   1.078   1_554  S
H31          C48   1.081   1_655  S
N33        N1683   1.321       .  A
N33         Co47   2.087       .  S
N34          N46   1.329       .  A
N34        N1718   1.320       .  A
N34        Co321   2.092   1_554  S
C35          N39   1.347       .  A
C35          C49   1.461       .  S
C35         C147   1.473       .  S
C36          C55   1.450       .  S
C36          H40   1.081       .  S
N37          C48   1.336       .  A
N37       Co1159   2.066   1_455  S
C41          N57   1.349       .  A
C41          C53   1.466       .  S
C41         C243   1.482       .  S
Co43        N562   2.079       .  S
Co43        N312   2.092       .  S
Co43       Cl610   2.450       .  S
N44          C55   1.349       .  A
C45         C234   1.474       .  S
Co47       N1149   2.066       .  S
Co47       Cl610   2.448       .  S
N50        N1702   1.320   1_445  A
N50        Co288   2.101   1_554  S
N51        C1125   1.354   1_455  A
C53         H308   1.078       .  S
Cl54      Co1122   2.448       .  S
Cl54      Co1124   2.449       .  S
Cl54       Co599   2.450   1_545  S
Cl54       Co603   2.448   1_545  S
C55         C174   1.458       .  S
C58          N76   1.349       .  A
C58          C95   1.467       .  S
C58         C135   1.485       .  S
N59          N76   1.326       .  A
N59          N81   1.321       .  A
N59         Co96   2.091       .  S
C60          N85   1.347       .  A
C60          C98   1.463       .  S
C60         H105   1.081       .  S
H61         C102   1.082       .  S
C62          N86   1.336       .  A
C62          C66   1.447       .  S
C62          H91   1.082       .  S
Co63         N81   2.097       .  S
Co63         N71   2.094       .  S
Co63        N103   2.075       .  S
Co63       N1191   2.100       .  S
Co63       Cl663   2.444       .  S
N64         C102   1.346       .  A
N64        N1739   1.320   1_445  A
N64         Co65   2.095       .  S
Co65         N68   2.102       .  S
Co65         N72   2.071       .  S
Co65        N641   2.098   1_545  S
Co65      Cl1219   2.464   1_455  S
C66         N104   1.355       .  A
C66         C111   1.468       .  S
N67          N74   1.317       .  A
N67          N97   1.320       .  A
N67       Co1212   2.065       .  S
N68          N86   1.320       .  A
N68         N104   1.328       .  A
N69          C98   1.352       .  A
N69          N79   1.326       .  A
H70          C95   1.082       .  S
N71          N92   1.326       .  A
N71        N1732   1.320       .  A
N72          N90   1.320       .  A
N72          N77   1.320       .  A
C73          N77   1.344       .  A
C73         C101   1.454       .  S
C73         C198   1.455       .  S
N74          C89   1.343       .  A
N74        Co652   2.090   1_545  S
C75         N103   1.337       .  A
C75          C78   1.452       .  S
C75         H109   1.082       .  S
C78          N99   1.358       .  A
C78         C210   1.483       .  S
N79          N85   1.321       .  A
N79       Co1175   2.100   1_455  S
N80         C106   1.349       .  A
N80        N1750   1.321       .  A
N80         Co96   2.112       .  S
N81          C95   1.343       .  A
N82         N110   1.325       .  A
N82        N1748   1.321   1_445  A
N82        Co100   2.084       .  S
H83         C106   1.082       .  S
H84         C101   1.082       .  S
N85        Co621   2.098       .  S
N86        Co100   2.069       .  S
N87          N99   1.329       .  A
N87         N103   1.321       .  A
N87         Co96   2.108       .  S
C88         N648   1.351   1_545  A
C88        C1214   1.463       .  S
C89         C108   1.468       .  S
C89          H93   1.081       .  S
N90         C101   1.339       .  A
N90        Co100   2.069       .  S
N92         C644   1.351       .  A
C94        N1778   1.348       .  A
C94         C106   1.470       .  S
Co96        N630   2.090       .  S
Co96       Cl663   2.466       .  S
N97         C108   1.344       .  A
C98         C126   1.483       .  S
Co100      N1179   2.065   1_455  S
Co100     Cl1219   2.437   1_455  S
C102       C1200   1.463   1_455  S
Cl107      Co619   2.444   1_545  S
Cl107     Co1177   2.464       .  S
Cl107      Co652   2.466   1_545  S
Cl107     Co1212   2.437       .  S
C108        C219   1.483       .  S
N110       C1762   1.348   1_445  A
C111        C112   1.398       .  A
C111        C116   1.403       .  A
C112        H121   1.084       .  S
C112        C113   1.403       .  A
C113        C114   1.434       .  A
C113        S117   1.805       .  S
C114        C115   1.421       .  A
C115        H122   1.073       .  S
C115        C116   1.399       .  A
C116        S118   1.805       .  S
S117        H120   1.400       .  S
S118        H119   1.405       .  S
C123        C124   1.419       .  A
C123        C128   1.450       .  A
C124        H133   1.079       .  S
C124        C125   1.411       .  A
C125        C126   1.410       .  A
C125        S129   1.804       .  S
C126        C127   1.388       .  A
C127        H134   1.084       .  S
C127        C128   1.400       .  A
C128        S130   1.816       .  S
S129        H132   1.405       .  S
S130        H131   1.407       .  S
C135        C136   1.392       .  A
C135        C140   1.408       .  A
C136        H145   1.082       .  S
C136        C137   1.403       .  A
C137        C138   1.442       .  A
C137        S141   1.805       .  S
C138        C139   1.421       .  A
C139        H146   1.075       .  S
C139        C140   1.405       .  A
C140        S142   1.803       .  S
S141        H144   1.407       .  S
S142        H699   1.406       .  S
H143        S698   1.406       .  S
C147        C148   1.396       .  A
C147        C152   1.407       .  A
C148        H157   1.083       .  S
C148        C149   1.400       .  A
C149        C150   1.439       .  A
C149        S153   1.813       .  S
C150        C151   1.423       .  A
C151        H158   1.084       .  S
C151        C152   1.393       .  A
C152        S154   1.801       .  S
S153        H156   1.407       .  S
S154        H155   1.407       .  S
C159        C160   1.420       .  A
C159        C164   1.432       .  A
C160        H169   1.083       .  S
C160        C161   1.387       .  A
C161        C162   1.402       .  A
C161        S165   1.803       .  S
C162        C163   1.397       .  A
C163        H170   1.083       .  S
C163        C164   1.403       .  A
C164        S166   1.811       .  S
S165        H168   1.408       .  S
S166        H167   1.406       .  S
C171        C172   1.415       .  A
C171        C176   1.444       .  A
C172        H181   1.048       .  S
C172        C173   1.391       .  A
C173        C174   1.394       .  A
C173        S177   1.806       .  S
C174        C175   1.394       .  A
C175        H182   1.085       .  S
C175        C176   1.399       .  A
C176        S178   1.811       .  S
S177        H180   1.405       .  S
S178        H179   1.401       .  S
C183        C184   1.413       .  A
C183        C188   1.430       .  A
C184        H193   1.083       .  S
C184        C185   1.398       .  A
C185        C186   1.436       .  A
C185        S189   1.823       .  S
C186        C187   1.419       .  A
C187        H194   1.071       .  S
C187        C188   1.395       .  A
C188        S190   1.811       .  S
S189        H192   1.408       .  S
S190        H191   1.408       .  S
C195        C196   1.420       .  A
C195        C200   1.443       .  A
C196        H205   1.074       .  S
C196        C197   1.395       .  A
C197        C198   1.402       .  A
C197        S201   1.807       .  S
C198        C199   1.384       .  A
C199        H206   1.084       .  S
C199        C200   1.396       .  A
C200        S202   1.805       .  S
S201        H204   1.405       .  S
S202        H203   1.408       .  S
C207        C208   1.428       .  A
C207        C212   1.434       .  A
C208        H217   1.079       .  S
C208        C209   1.400       .  A
C209        C210   1.398       .  A
C209        S213   1.799       .  S
C210        C211   1.399       .  A
C211        H218   1.082       .  S
C211        C212   1.407       .  A
C212        S214   1.804       .  S
S213        H216   1.407       .  S
S214        H215   1.407       .  S
C219        C220   1.397       .  A
C219        C224   1.411       .  A
C220        H229   1.082       .  S
C220        C221   1.401       .  A
C221        C222   1.442       .  A
C221        S225   1.810       .  S
C222        C223   1.419       .  A
C223        H230   1.082       .  S
C223        C224   1.395       .  A
C224        S226   1.801       .  S
S225        H228   1.395       .  S
S226        H227   1.408       .  S
C231        C279   1.586       .  S
C231        C236   1.448       .  A
C231        C510   1.426       .  A
C232        H241   1.083       .  S
C232        C233   1.401   1_554  A
C232        C509   1.426   1_554  A
C233        C512   1.401       .  A
C233        S237   1.804   1_556  S
C234        C235   1.392       .  A
C234        C511   1.401       .  A
C235        H242   1.086       .  S
C235        C236   1.401       .  A
C236        S238   1.805       .  S
S237        H240   1.406       .  S
S238        H239   1.400       .  S
C243        C244   1.401       .  A
C243        C526   1.403       .  A
C244        H253   1.084       .  S
C244        C245   1.402       .  A
C245        C246   1.438       .  A
C245        S249   1.810       .  S
C246        C279   1.565       .  S
C246        C525   1.419       .  A
C247        H254   1.072       .  S
C247        C248   1.390       .  A
C247        C524   1.419   1_554  A
C248        C521   1.403   1_554  A
C248        S250   1.796       .  S
S249        H252   1.397       .  S
S250        H251   1.408       .  S
C255        C279   1.580       .  S
C255        C256   1.419       .  A
C255        C538   1.442       .  A
C256        H265   1.078       .  S
C256        C257   1.403       .  A
C257        C258   1.412       .  A
C257        S261   1.803       .  S
C258        C259   1.395       .  A
C259        H544   1.083       .  S
C259        C538   1.396       .  A
C260        C533   1.442       .  A
C260        C537   1.396       .  A
C260        S262   1.809   1_556  S
S261        H264   1.407       .  S
S262        H263   1.399       .  S
H266        C537   1.083       .  S
C267        C268   1.415       .  A
C267        C272   1.424       .  A
C268        H277   1.077       .  S
C268        C269   1.395       .  A
C269        C270   1.436       .  A
C269        S273   1.809       .  S
C270        C271   1.418       .  A
C271        H278   1.082       .  S
C271        C272   1.396       .  A
C272        S274   1.807       .  S
S273        H276   1.394       .  S
S274        H275   1.407       .  S
C279        C545   1.585       .  S
C280        C473   1.573       .  S
C280        C485   1.595       .  S
C280        C500   1.565       .  S
C280        C548   1.577       .  S
C281        C428   1.574       .  S
C281        C437   1.547       .  S
C281        C449   1.583       .  S
C281        C464   1.604       .  S
C282        C392   1.572       .  S
C282        C401   1.598       .  S
C282        C416   1.588       .  S
C282        C461   1.564       .  S
C283        N301   1.350       .  A
C283        C320   1.466       .  S
C283        C536   1.487       .  S
N284        N301   1.325       .  A
N284        N306   1.319       .  A
N284       Co877   2.079   1_545  S
C285        N310   1.339       .  A
C285        C323   1.457       .  S
C285        H330   1.081       .  S
H286        C327   1.081       .  S
C287        N311   1.341       .  A
C287        C847   1.459       .  S
C287        H316   1.082       .  S
Co288      N1418   2.094   1_455  S
Co288       N296   2.081       .  S
Co288       N304   2.097       .  S
Co288     Cl1444   2.448   1_455  S
N289        C327   1.339       .  A
N289        N296   1.320       .  A
N289       Co290   2.071       .  S
Co290       N293   2.104       .  S
Co290       N310   2.088       .  S
Co290       N853   2.066   1_545  S
Co290     Cl1444   2.449   1_455  S
C291       N1441   1.354       .  A
C291        C843   1.459   1_545  S
C291        C366   1.479       .  S
N292        N299   1.319       .  A
N292        N322   1.324       .  A
N292       Co325   2.078       .  S
N293       N1979   1.321   1_445  A
N293        N329   1.329       .  A
N294        C323   1.355       .  A
N294        N304   1.327       .  A
H295        C320   1.081       .  S
N296        N317   1.320       .  A
N297        N315   1.317       .  A
N297        N302   1.322       .  A
N297       Co846   2.066       .  S
C298        N302   1.346       .  A
C298        C326   1.455       .  S
C298        C440   1.462       .  S
N299        C314   1.334       .  A
N299       Co321   2.067       .  S
C300        N328   1.344       .  A
C300       C1971   1.465   1_445  S
C300        H334   1.082       .  S
C303        N324   1.352       .  A
C303       C1968   1.465       .  S
C303        C372   1.482       .  S
N304        N310   1.321       .  A
N305        C331   1.334       .  A
N305        N307   1.318       .  A
N305       Co321   2.072       .  S
N306        C320   1.341       .  A
N306      Co1400   2.094       .  S
N307        N335   1.322       .  A
N307       Co325   2.075       .  S
H309        C326   1.081   1_655  S
N311       N1961   1.321       .  A
N311       Co325   2.087       .  S
N312        N324   1.329       .  A
N312       N1996   1.320       .  A
C313        N317   1.347       .  A
C313        C327   1.461       .  S
C313        C425   1.473       .  S
C314        C333   1.450       .  S
C314        H318   1.081       .  S
N315        C326   1.336       .  A
N315      Co1437   2.066   1_455  S
C319        N335   1.349       .  A
C319        C331   1.466       .  S
C319        C521   1.482       .  S
Co321       N840   2.079       .  S
Co321      Cl888   2.450       .  S
N322        C333   1.349       .  A
C323        C512   1.474       .  S
Co325      N1427   2.066       .  S
Co325      Cl888   2.448       .  S
N328       N1980   1.320   1_445  A
N329       C1403   1.354   1_455  A
Cl332     Co1400   2.448       .  S
Cl332     Co1402   2.449       .  S
Cl332      Co877   2.450   1_545  S
Cl332      Co881   2.448   1_545  S
C333        C452   1.458       .  S
C336        N354   1.349       .  A
C336        C373   1.467       .  S
C336        C413   1.485       .  S
N337        N354   1.326       .  A
N337        N359   1.321       .  A
N337       Co374   2.091       .  S
C338        N363   1.347       .  A
C338        C376   1.463       .  S
C338        H383   1.081       .  S
H339        C380   1.082       .  S
C340        N364   1.336       .  A
C340        C344   1.447       .  S
C340        H369   1.082       .  S
Co341       N359   2.097       .  S
Co341       N349   2.094       .  S
Co341       N381   2.075       .  S
Co341      N1469   2.100       .  S
Co341      Cl941   2.444       .  S
N342        C380   1.346       .  A
N342       N2017   1.320   1_445  A
N342       Co343   2.095       .  S
Co343       N346   2.102       .  S
Co343       N919   2.098   1_545  S
Co343       N350   2.071       .  S
Co343     Cl1497   2.464   1_455  S
C344        N382   1.355       .  A
C344        C389   1.468       .  S
N345        N352   1.317       .  A
N345        N375   1.320       .  A
N345      Co1490   2.065       .  S
N346        N364   1.320       .  A
N346        N382   1.328       .  A
N347        C376   1.352       .  A
N347        N357   1.326       .  A
H348        C373   1.082       .  S
N349       N2010   1.320       .  A
N349        N370   1.326       .  A
N350        N368   1.320       .  A
N350        N355   1.320       .  A
C351        N355   1.344       .  A
C351        C379   1.454       .  S
C351        C476   1.455       .  S
N352        C367   1.343       .  A
N352       Co930   2.090   1_545  S
C353        N381   1.337       .  A
C353        C356   1.452       .  S
C353        H387   1.082       .  S
C356        N377   1.358       .  A
C356        C488   1.483       .  S
N357        N363   1.321       .  A
N357      Co1453   2.100   1_455  S
N358        C384   1.349       .  A
N358       N2028   1.321       .  A
N358       Co374   2.112       .  S
N359        C373   1.343       .  A
N360       N2026   1.321   1_445  A
N360        N388   1.325       .  A
N360       Co378   2.084       .  S
H361        C384   1.082       .  S
H362        C379   1.082       .  S
N363       Co899   2.098       .  S
N364       Co378   2.069       .  S
N365        N377   1.329       .  A
N365        N381   1.321       .  A
N365       Co374   2.108       .  S
C366        N926   1.351   1_545  A
C366       C1492   1.463       .  S
C367        C386   1.468       .  S
C367        H371   1.081       .  S
N368        C379   1.339       .  A
N368       Co378   2.069       .  S
N370        C922   1.351       .  A
C372       N2056   1.348       .  A
C372        C384   1.470       .  S
Co374       N908   2.090       .  S
Co374      Cl941   2.466       .  S
N375        C386   1.344       .  A
C376        C404   1.483       .  S
Co378      N1457   2.065   1_455  S
Co378     Cl1497   2.437   1_455  S
C380       C1478   1.463   1_455  S
Cl385      Co897   2.444   1_545  S
Cl385     Co1455   2.464       .  S
Cl385      Co930   2.466   1_545  S
Cl385     Co1490   2.437       .  S
C386        C497   1.483       .  S
N388       C2040   1.348   1_445  A
C389        C390   1.398       .  A
C389        C394   1.403       .  A
C390        H399   1.084       .  S
C390        C391   1.403       .  A
C391        C392   1.434       .  A
C391        S395   1.805       .  S
C392        C393   1.421       .  A
C393        H400   1.073       .  S
C393        C394   1.399       .  A
C394        S396   1.805       .  S
S395        H398   1.400       .  S
S396        H397   1.405       .  S
C401        C402   1.419       .  A
C401        C406   1.450       .  A
C402        H411   1.079       .  S
C402        C403   1.411       .  A
C403        C404   1.410       .  A
C403        S407   1.804       .  S
C404        C405   1.388       .  A
C405        H412   1.084       .  S
C405        C406   1.400       .  A
C406        S408   1.816       .  S
S407        H410   1.405       .  S
S408        H409   1.407       .  S
C413        C414   1.392       .  A
C413        C418   1.408       .  A
C414        H423   1.082       .  S
C414        C415   1.403       .  A
C415        C416   1.442       .  A
C415        S419   1.805       .  S
C416        C417   1.421       .  A
C417        H424   1.075       .  S
C417        C418   1.405       .  A
C418        S420   1.803       .  S
S419        H422   1.407       .  S
S420        H977   1.406       .  S
H421        S976   1.406       .  S
C425        C426   1.396       .  A
C425        C430   1.407       .  A
C426        H435   1.083       .  S
C426        C427   1.400       .  A
C427        C428   1.439       .  A
C427        S431   1.813       .  S
C428        C429   1.423       .  A
C429        H436   1.084       .  S
C429        C430   1.393       .  A
C430        S432   1.801       .  S
S431        H434   1.407       .  S
S432        H433   1.407       .  S
C437        C438   1.420       .  A
C437        C442   1.432       .  A
C438        H447   1.083       .  S
C438        C439   1.387       .  A
C439        C440   1.402       .  A
C439        S443   1.803       .  S
C440        C441   1.397       .  A
C441        H448   1.083       .  S
C441        C442   1.403       .  A
C442        S444   1.811       .  S
S443        H446   1.408       .  S
S444        H445   1.406       .  S
C449        C450   1.415       .  A
C449        C454   1.444       .  A
C450        H459   1.048       .  S
C450        C451   1.391       .  A
C451        C452   1.394       .  A
C451        S455   1.806       .  S
C452        C453   1.394       .  A
C453        H460   1.085       .  S
C453        C454   1.399       .  A
C454        S456   1.811       .  S
S455        H458   1.405       .  S
S456        H457   1.401       .  S
C461        C462   1.413       .  A
C461        C466   1.430       .  A
C462        H471   1.083       .  S
C462        C463   1.398       .  A
C463        C464   1.436       .  A
C463        S467   1.823       .  S
C464        C465   1.419       .  A
C465        H472   1.071       .  S
C465        C466   1.395       .  A
C466        S468   1.811       .  S
S467        H470   1.408       .  S
S468        H469   1.408       .  S
C473        C474   1.420       .  A
C473        C478   1.443       .  A
C474        H483   1.074       .  S
C474        C475   1.395       .  A
C475        C476   1.402       .  A
C475        S479   1.807       .  S
C476        C477   1.384       .  A
C477        H484   1.084       .  S
C477        C478   1.396       .  A
C478        S480   1.805       .  S
S479        H482   1.405       .  S
S480        H481   1.408       .  S
C485        C486   1.428       .  A
C485        C490   1.434       .  A
C486        H495   1.079       .  S
C486        C487   1.400       .  A
C487        C488   1.398       .  A
C487        S491   1.799       .  S
C488        C489   1.399       .  A
C489        H496   1.082       .  S
C489        C490   1.407       .  A
C490        S492   1.804       .  S
S491        H494   1.407       .  S
S492        H493   1.407       .  S
C497        C498   1.397       .  A
C497        C502   1.411       .  A
C498        H507   1.082       .  S
C498        C499   1.401       .  A
C499        C500   1.442       .  A
C499        S503   1.810       .  S
C500        C501   1.419       .  A
C501        H508   1.082       .  S
C501        C502   1.395       .  A
C502        S504   1.801       .  S
S503        H506   1.395       .  S
S504        H505   1.408       .  S
C509        C514   1.448       .  A
C510        H519   1.083       .  S
C510        C511   1.401       .  A
C511        S515   1.804       .  S
C512        C513   1.392       .  A
C513        H520   1.086       .  S
C513        C514   1.401       .  A
C514        S516   1.805       .  S
S515        H518   1.406       .  S
S516        H517   1.400       .  S
C521        C522   1.401       .  A
C522        H531   1.084       .  S
C522        C523   1.402       .  A
C523        C524   1.438       .  A
C523        S527   1.810       .  S
C525        H532   1.072       .  S
C525        C526   1.390       .  A
C526        S528   1.796       .  S
S527        H530   1.397       .  S
S528        H529   1.408       .  S
C533        C534   1.419       .  A
C534        H543   1.078       .  S
C534        C535   1.403       .  A
C535        C536   1.412       .  A
C535        S539   1.803       .  S
C536        C537   1.395       .  A
C538        S540   1.809       .  S
S539        H542   1.407       .  S
S540        H541   1.399       .  S
C545        C546   1.415       .  A
C545        C550   1.424       .  A
C546        H555   1.077       .  S
C546        C547   1.395       .  A
C547        C548   1.436       .  A
C547        S551   1.809       .  S
C548        C549   1.418       .  A
C549        H556   1.082       .  S
C549        C550   1.396       .  A
C550        S552   1.807       .  S
S551        H554   1.394       .  S
S552        H553   1.407       .  S
C557       C1065   1.586   1_554  S
C557       C1080   1.565   1_554  S
C557       C1089   1.580   1_554  S
C557        C823   1.585       .  S
C558        C751   1.573       .  S
C558        C763   1.595       .  S
C558        C778   1.565       .  S
C558        C826   1.577       .  S
C559        C706   1.574       .  S
C559        C715   1.547       .  S
C559        C727   1.583       .  S
C559        C742   1.604       .  S
C560        C670   1.572       .  S
C560        C679   1.598       .  S
C560        C694   1.588       .  S
C560        C739   1.564       .  S
C561        N579   1.350       .  A
C561        C598   1.466       .  S
C561        C814   1.487       .  S
N562        N579   1.325       .  A
N562        N584   1.319       .  A
C563        N588   1.339       .  A
C563        C601   1.457       .  S
C563        H608   1.081       .  S
H564        C605   1.081       .  S
C565        N589   1.341       .  A
C565        H594   1.082       .  S
Co566      N1696   2.094   1_455  S
Co566       N574   2.081       .  S
Co566       N884   2.101       .  S
Co566       N582   2.097       .  S
Co566     Cl1722   2.448   1_455  S
N567        C605   1.339       .  A
N567        N574   1.320       .  A
N567       Co568   2.071       .  S
Co568       N571   2.104       .  S
Co568       N588   2.088       .  S
Co568     Cl1722   2.449   1_455  S
C569       N1719   1.354       .  A
C569        C644   1.479       .  S
N570        N577   1.319       .  A
N570        N600   1.324       .  A
N570       Co603   2.078       .  S
N571       N1145   1.321   1_455  A
N571        N607   1.329       .  A
N572        C601   1.355       .  A
N572        N582   1.327       .  A
H573        C598   1.081       .  S
N574        N595   1.320       .  A
N575        N593   1.317       .  A
N575        N580   1.322       .  A
C576        N580   1.346       .  A
C576        C604   1.455       .  S
C576        C718   1.462       .  S
N577        C592   1.334       .  A
N577       Co599   2.067       .  S
C578        N606   1.344       .  A
C578       C1137   1.465   1_455  S
C578        H612   1.082       .  S
C581        N602   1.352       .  A
C581       C1134   1.465   1_565  S
C581        C650   1.482       .  S
N582        N588   1.321       .  A
N583        C609   1.334       .  A
N583        N585   1.318       .  A
N583       Co599   2.072       .  S
N584        C598   1.341       .  A
N584      Co1678   2.094       .  S
N585        N613   1.322       .  A
N585       Co603   2.075       .  S
H586        C887   1.078   1_554  S
H587        C604   1.081   1_655  S
N589       N1127   1.321   1_565  A
N589       Co603   2.087       .  S
N590        N602   1.329       .  A
N590       N1162   1.320   1_565  A
N590       Co877   2.092   1_554  S
C591        N595   1.347       .  A
C591        C605   1.461       .  S
C591        C703   1.473       .  S
C592        C611   1.450       .  S
C592        H596   1.081       .  S
N593        C604   1.336       .  A
N593      Co1715   2.066   1_455  S
C597        N613   1.349       .  A
C597        C609   1.466       .  S
C597        C799   1.482       .  S
Co599       N868   2.092       .  S
N600        C611   1.349       .  A
C601        C790   1.474       .  S
Co603      N1705   2.066       .  S
N606       N1146   1.320   1_455  A
N606       Co844   2.101   1_554  S
N607       C1681   1.354   1_455  A
C609        H864   1.078       .  S
Cl610     Co1678   2.448       .  S
Cl610     Co1680   2.449       .  S
C611        C730   1.458       .  S
C614        N632   1.349       .  A
C614        C651   1.467       .  S
C614        C691   1.485       .  S
N615        N632   1.326       .  A
N615        N637   1.321       .  A
N615       Co652   2.091       .  S
C616        N641   1.347       .  A
C616        C654   1.463       .  S
C616        H661   1.081   1_565  S
H617        C658   1.082       .  S
C618        N642   1.336       .  A
C618        C622   1.447       .  S
C618        H647   1.082       .  S
Co619       N637   2.097       .  S
Co619       N627   2.094       .  S
Co619       N659   2.075       .  S
Co619      N1747   2.100       .  S
N620        C658   1.346       .  A
N620       N1183   1.320   1_455  A
N620       Co621   2.095       .  S
Co621       N624   2.102       .  S
Co621       N628   2.071       .  S
Co621     Cl1775   2.464   1_455  S
C622        N660   1.355       .  A
C622        C667   1.468       .  S
N623        N630   1.317       .  A
N623        N653   1.320       .  A
N623      Co1768   2.065       .  S
N624        N642   1.320       .  A
N624        N660   1.328       .  A
N625        C654   1.352       .  A
N625        N635   1.326       .  A
H626        C651   1.082       .  S
N627       N1176   1.320   1_565  A
N627        N648   1.326       .  A
N628        N646   1.320       .  A
N628        N633   1.320       .  A
C629        N633   1.344       .  A
C629        C657   1.454       .  S
C629        C754   1.455       .  S
N630        C645   1.343       .  A
C631        N659   1.337       .  A
C631        C634   1.452       .  S
C631        H665   1.082       .  S
C634        N655   1.358       .  A
C634        C766   1.483       .  S
N635        N641   1.321       .  A
N635      Co1731   2.100   1_455  S
N636        C662   1.349       .  A
N636       N1194   1.321   1_565  A
N636       Co652   2.112       .  S
N637        C651   1.343       .  A
N638       N1192   1.321   1_455  A
N638        N666   1.325       .  A
N638       Co656   2.084       .  S
H639        C662   1.082       .  S
H640        C657   1.082       .  S
N642       Co656   2.069       .  S
N643        N655   1.329       .  A
N643        N659   1.321       .  A
N643       Co652   2.108       .  S
C644       C1770   1.463       .  S
C645        C664   1.468       .  S
C645        H649   1.081       .  S
N646        C657   1.339       .  A
N646       Co656   2.069       .  S
C650       N1222   1.348   1_565  A
C650        C662   1.470       .  S
N653        C664   1.344       .  A
C654        C682   1.483       .  S
Co656      N1735   2.065   1_455  S
Co656     Cl1775   2.437   1_455  S
C658       C1756   1.463   1_455  S
Cl663     Co1733   2.464       .  S
Cl663     Co1768   2.437       .  S
C664        C775   1.483       .  S
N666       C1206   1.348   1_455  A
C667        C668   1.398       .  A
C667        C672   1.403       .  A
C668        H677   1.084       .  S
C668        C669   1.403       .  A
C669        C670   1.434       .  A
C669        S673   1.805       .  S
C670        C671   1.421       .  A
C671        H678   1.073       .  S
C671        C672   1.399       .  A
C672        S674   1.805       .  S
S673        H676   1.400       .  S
S674        H675   1.405       .  S
C679        C680   1.419       .  A
C679        C684   1.450       .  A
C680        H689   1.079       .  S
C680        C681   1.411       .  A
C681        C682   1.410       .  A
C681        S685   1.804       .  S
C682        C683   1.388       .  A
C683        H690   1.084       .  S
C683        C684   1.400       .  A
C684        S686   1.816       .  S
S685        H688   1.405       .  S
S686        H687   1.407       .  S
C691        C692   1.392       .  A
C691        C696   1.408       .  A
C692        H701   1.082       .  S
C692        C693   1.403       .  A
C693        C694   1.442       .  A
C693        S697   1.805       .  S
C694        C695   1.421       .  A
C695        H702   1.075       .  S
C695        C696   1.405       .  A
C696        S698   1.803       .  S
S697        H700   1.407       .  S
C703        C704   1.396       .  A
C703        C708   1.407       .  A
C704        H713   1.083       .  S
C704        C705   1.400       .  A
C705        C706   1.439       .  A
C705        S709   1.813       .  S
C706        C707   1.423       .  A
C707        H714   1.084       .  S
C707        C708   1.393       .  A
C708        S710   1.801       .  S
S709        H712   1.407       .  S
S710        H711   1.407       .  S
C715        C716   1.420       .  A
C715        C720   1.432       .  A
C716        H725   1.083       .  S
C716        C717   1.387       .  A
C717        C718   1.402       .  A
C717        S721   1.803       .  S
C718        C719   1.397       .  A
C719        H726   1.083       .  S
C719        C720   1.403       .  A
C720        S722   1.811       .  S
S721        H724   1.408       .  S
S722        H723   1.406       .  S
C727        C728   1.415       .  A
C727        C732   1.444       .  A
C728        H737   1.048       .  S
C728        C729   1.391       .  A
C729        C730   1.394       .  A
C729        S733   1.806       .  S
C730        C731   1.394       .  A
C731        H738   1.085       .  S
C731        C732   1.399       .  A
C732        S734   1.811       .  S
S733        H736   1.405       .  S
S734        H735   1.401       .  S
C739        C740   1.413       .  A
C739        C744   1.430       .  A
C740        H749   1.083       .  S
C740        C741   1.398       .  A
C741        C742   1.436       .  A
C741        S745   1.823       .  S
C742        C743   1.419       .  A
C743        H750   1.071       .  S
C743        C744   1.395       .  A
C744        S746   1.811       .  S
S745        H748   1.408       .  S
S746        H747   1.408       .  S
C751        C752   1.420       .  A
C751        C756   1.443       .  A
C752        H761   1.074       .  S
C752        C753   1.395       .  A
C753        C754   1.402       .  A
C753        S757   1.807       .  S
C754        C755   1.384       .  A
C755        H762   1.084       .  S
C755        C756   1.396       .  A
C756        S758   1.805       .  S
S757        H760   1.405       .  S
S758        H759   1.408       .  S
C763        C764   1.428       .  A
C763        C768   1.434       .  A
C764        H773   1.079       .  S
C764        C765   1.400       .  A
C765        C766   1.398       .  A
C765        S769   1.799       .  S
C766        C767   1.399       .  A
C767        H774   1.082       .  S
C767        C768   1.407       .  A
C768        S770   1.804       .  S
S769        H772   1.407       .  S
S770        H771   1.407       .  S
C775        C776   1.397       .  A
C775        C780   1.411       .  A
C776        H785   1.082       .  S
C776        C777   1.401       .  A
C777        C778   1.442       .  A
C777        S781   1.810       .  S
C778        C779   1.419       .  A
C779        H786   1.082       .  S
C779        C780   1.395       .  A
C780        S782   1.801       .  S
S781        H784   1.395       .  S
S782        H783   1.408       .  S
C787        C835   1.586       .  S
C787       C1066   1.426       .  A
C787        C792   1.448       .  A
C788        H797   1.083       .  S
C788       C1065   1.426   1_554  A
C788        C789   1.401   1_554  A
C789       C1068   1.401       .  A
C789        S793   1.804   1_556  S
C790       C1067   1.401       .  A
C790        C791   1.392       .  A
C791        H798   1.086       .  S
C791        C792   1.401       .  A
C792        S794   1.805       .  S
S793        H796   1.406       .  S
S794        H795   1.400       .  S
C799        C800   1.401       .  A
C799       C1082   1.403       .  A
C800        H809   1.084       .  S
C800        C801   1.402       .  A
C801        C802   1.438       .  A
C801        S805   1.810       .  S
C802        C835   1.565       .  S
C802       C1081   1.419       .  A
C803        H810   1.072       .  S
C803       C1080   1.419   1_554  A
C803        C804   1.390       .  A
C804       C1077   1.403   1_554  A
C804        S806   1.796       .  S
S805        H808   1.397       .  S
S806        H807   1.408       .  S
C811        C835   1.580       .  S
C811        C812   1.419       .  A
C811       C1094   1.442       .  A
C812        H821   1.078       .  S
C812        C813   1.403       .  A
C813        C814   1.412       .  A
C813        S817   1.803       .  S
C814        C815   1.395       .  A
C815       H1100   1.083       .  S
C815       C1094   1.396       .  A
C816       C1089   1.442       .  A
C816       C1093   1.396       .  A
C816        S818   1.809   1_556  S
S817        H820   1.407       .  S
S818        H819   1.399       .  S
H822       C1093   1.083       .  S
C823        C824   1.415       .  A
C823        C828   1.424       .  A
C824        H833   1.077       .  S
C824        C825   1.395       .  A
C825        C826   1.436       .  A
C825        S829   1.809       .  S
C826        C827   1.418       .  A
C827        H834   1.082       .  S
C827        C828   1.396       .  A
C828        S830   1.807       .  S
S829        H832   1.394       .  S
S830        H831   1.407       .  S
C835       C1101   1.585       .  S
C836       C1029   1.573       .  S
C836       C1041   1.595       .  S
C836       C1056   1.565       .  S
C836       C1104   1.577       .  S
C837        C984   1.574       .  S
C837        C993   1.547       .  S
C837       C1005   1.583       .  S
C837       C1020   1.604       .  S
C838        C948   1.572       .  S
C838        C957   1.598       .  S
C838        C972   1.588       .  S
C838       C1017   1.564       .  S
C839        N857   1.350       .  A
C839        C876   1.466       .  S
C839       C1092   1.487       .  S
N840        N857   1.325       .  A
N840        N862   1.319       .  A
C841        N866   1.339       .  A
C841        C879   1.457       .  S
C841        H886   1.081       .  S
H842        C883   1.081       .  S
C843        N867   1.341       .  A
C843        H872   1.082       .  S
Co844      N1974   2.094   1_455  S
Co844       N852   2.081       .  S
Co844       N860   2.097       .  S
Co844     Cl2000   2.448   1_455  S
N845        C883   1.339       .  A
N845        N852   1.320       .  A
N845       Co846   2.071       .  S
Co846       N849   2.104       .  S
Co846       N866   2.088       .  S
Co846     Cl2000   2.449   1_455  S
C847       N1997   1.354       .  A
C847        C922   1.479       .  S
N848        N855   1.319       .  A
N848        N878   1.324       .  A
N848       Co881   2.078       .  S
N849       N1423   1.321   1_455  A
N849        N885   1.329       .  A
N850        C879   1.355       .  A
N850        N860   1.327       .  A
H851        C876   1.081       .  S
N852        N873   1.320       .  A
N853        N871   1.317       .  A
N853        N858   1.322       .  A
C854        N858   1.346       .  A
C854        C882   1.455       .  S
C854        C996   1.462       .  S
N855        C870   1.334       .  A
N855       Co877   2.067       .  S
C856        N884   1.344       .  A
C856       C1415   1.465   1_455  S
C856        H890   1.082       .  S
C859        N880   1.352       .  A
C859       C1412   1.465   1_565  S
C859        C928   1.482       .  S
N860        N866   1.321       .  A
N861        C887   1.334       .  A
N861        N863   1.318       .  A
N861       Co877   2.072       .  S
N862        C876   1.341       .  A
N862      Co1956   2.094       .  S
N863        N891   1.322       .  A
N863       Co881   2.075       .  S
H865        C882   1.081   1_655  S
N867       N1405   1.321   1_565  A
N867       Co881   2.087       .  S
N868        N880   1.329       .  A
N868       N1440   1.320   1_565  A
C869        N873   1.347       .  A
C869        C883   1.461       .  S
C869        C981   1.473       .  S
C870        C889   1.450       .  S
C870        H874   1.081       .  S
N871        C882   1.336       .  A
N871      Co1993   2.066   1_455  S
C875        N891   1.349       .  A
C875        C887   1.466       .  S
C875       C1077   1.482       .  S
N878        C889   1.349       .  A
C879       C1068   1.474       .  S
Co881      N1983   2.066       .  S
N884       N1424   1.320   1_455  A
N885       C1959   1.354   1_455  A
Cl888     Co1956   2.448       .  S
Cl888     Co1958   2.449       .  S
C889       C1008   1.458       .  S
C892        N910   1.349       .  A
C892        C929   1.467       .  S
C892        C969   1.485       .  S
N893        N910   1.326       .  A
N893        N915   1.321       .  A
N893       Co930   2.091       .  S
C894        N919   1.347       .  A
C894        C932   1.463       .  S
C894        H939   1.081   1_565  S
H895        C936   1.082       .  S
C896        N920   1.336       .  A
C896        C900   1.447       .  S
C896        H925   1.082       .  S
Co897       N915   2.097       .  S
Co897       N905   2.094       .  S
Co897       N937   2.075       .  S
Co897      N2025   2.100       .  S
N898        C936   1.346       .  A
N898       N1461   1.320   1_455  A
N898       Co899   2.095       .  S
Co899       N902   2.102       .  S
Co899       N906   2.071       .  S
Co899     Cl2053   2.464   1_455  S
C900        N938   1.355       .  A
C900        C945   1.468       .  S
N901        N908   1.317       .  A
N901        N931   1.320       .  A
N901      Co2046   2.065       .  S
N902        N920   1.320       .  A
N902        N938   1.328       .  A
N903        C932   1.352       .  A
N903        N913   1.326       .  A
H904        C929   1.082       .  S
N905       N1454   1.320   1_565  A
N905        N926   1.326       .  A
N906        N924   1.320       .  A
N906        N911   1.320       .  A
C907        N911   1.344       .  A
C907        C935   1.454       .  S
C907       C1032   1.455       .  S
N908        C923   1.343       .  A
C909        N937   1.337       .  A
C909        C912   1.452       .  S
C909        H943   1.082       .  S
C912        N933   1.358       .  A
C912       C1044   1.483       .  S
N913        N919   1.321       .  A
N913      Co2009   2.100   1_455  S
N914        C940   1.349       .  A
N914       N1472   1.321   1_565  A
N914       Co930   2.112       .  S
N915        C929   1.343       .  A
N916       N1470   1.321   1_455  A
N916        N944   1.325       .  A
N916       Co934   2.084       .  S
H917        C940   1.082       .  S
H918        C935   1.082       .  S
N920       Co934   2.069       .  S
N921        N933   1.329       .  A
N921        N937   1.321       .  A
N921       Co930   2.108       .  S
C922       C2048   1.463       .  S
C923        C942   1.468       .  S
C923        H927   1.081       .  S
N924        C935   1.339       .  A
N924       Co934   2.069       .  S
C928       N1500   1.348   1_565  A
C928        C940   1.470       .  S
N931        C942   1.344       .  A
C932        C960   1.483       .  S
Co934      N2013   2.065   1_455  S
Co934     Cl2053   2.437   1_455  S
C936       C2034   1.463   1_455  S
Cl941     Co2011   2.464       .  S
Cl941     Co2046   2.437       .  S
C942       C1053   1.483       .  S
N944       C1484   1.348   1_455  A
C945        C946   1.398       .  A
C945        C950   1.403       .  A
C946        H955   1.084       .  S
C946        C947   1.403       .  A
C947        C948   1.434       .  A
C947        S951   1.805       .  S
C948        C949   1.421       .  A
C949        H956   1.073       .  S
C949        C950   1.399       .  A
C950        S952   1.805       .  S
S951        H954   1.400       .  S
S952        H953   1.405       .  S
C957        C958   1.419       .  A
C957        C962   1.450       .  A
C958        H967   1.079       .  S
C958        C959   1.411       .  A
C959        C960   1.410       .  A
C959        S963   1.804       .  S
C960        C961   1.388       .  A
C961        H968   1.084       .  S
C961        C962   1.400       .  A
C962        S964   1.816       .  S
S963        H966   1.405       .  S
S964        H965   1.407       .  S
C969        C970   1.392       .  A
C969        C974   1.408       .  A
C970        H979   1.082       .  S
C970        C971   1.403       .  A
C971        C972   1.442       .  A
C971        S975   1.805       .  S
C972        C973   1.421       .  A
C973        H980   1.075       .  S
C973        C974   1.405       .  A
C974        S976   1.803       .  S
S975        H978   1.407       .  S
C981        C982   1.396       .  A
C981        C986   1.407       .  A
C982        H991   1.083       .  S
C982        C983   1.400       .  A
C983        C984   1.439       .  A
C983        S987   1.813       .  S
C984        C985   1.423       .  A
C985        H992   1.084       .  S
C985        C986   1.393       .  A
C986        S988   1.801       .  S
S987        H990   1.407       .  S
S988        H989   1.407       .  S
C993        C994   1.420       .  A
C993        C998   1.432       .  A
C994       H1003   1.083       .  S
C994        C995   1.387       .  A
C995        C996   1.402       .  A
C995        S999   1.803       .  S
C996        C997   1.397       .  A
C997       H1004   1.083       .  S
C997        C998   1.403       .  A
C998       S1000   1.811       .  S
S999       H1002   1.408       .  S
S1000      H1001   1.406       .  S
C1005      C1006   1.415       .  A
C1005      C1010   1.444       .  A
C1006      H1015   1.048       .  S
C1006      C1007   1.391       .  A
C1007      C1008   1.394       .  A
C1007      S1011   1.806       .  S
C1008      C1009   1.394       .  A
C1009      H1016   1.085       .  S
C1009      C1010   1.399       .  A
C1010      S1012   1.811       .  S
S1011      H1014   1.405       .  S
S1012      H1013   1.401       .  S
C1017      C1018   1.413       .  A
C1017      C1022   1.430       .  A
C1018      H1027   1.083       .  S
C1018      C1019   1.398       .  A
C1019      C1020   1.436       .  A
C1019      S1023   1.823       .  S
C1020      C1021   1.419       .  A
C1021      H1028   1.071       .  S
C1021      C1022   1.395       .  A
C1022      S1024   1.811       .  S
S1023      H1026   1.408       .  S
S1024      H1025   1.408       .  S
C1029      C1030   1.420       .  A
C1029      C1034   1.443       .  A
C1030      H1039   1.074       .  S
C1030      C1031   1.395       .  A
C1031      C1032   1.402       .  A
C1031      S1035   1.807       .  S
C1032      C1033   1.384       .  A
C1033      H1040   1.084       .  S
C1033      C1034   1.396       .  A
C1034      S1036   1.805       .  S
S1035      H1038   1.405       .  S
S1036      H1037   1.408       .  S
C1041      C1042   1.428       .  A
C1041      C1046   1.434       .  A
C1042      H1051   1.079       .  S
C1042      C1043   1.400       .  A
C1043      C1044   1.398       .  A
C1043      S1047   1.799       .  S
C1044      C1045   1.399       .  A
C1045      H1052   1.082       .  S
C1045      C1046   1.407       .  A
C1046      S1048   1.804       .  S
S1047      H1050   1.407       .  S
S1048      H1049   1.407       .  S
C1053      C1054   1.397       .  A
C1053      C1058   1.411       .  A
C1054      H1063   1.082       .  S
C1054      C1055   1.401       .  A
C1055      C1056   1.442       .  A
C1055      S1059   1.810       .  S
C1056      C1057   1.419       .  A
C1057      H1064   1.082       .  S
C1057      C1058   1.395       .  A
C1058      S1060   1.801       .  S
S1059      H1062   1.395       .  S
S1060      H1061   1.408       .  S
C1065      C1070   1.448       .  A
C1066      H1075   1.083       .  S
C1066      C1067   1.401       .  A
C1067      S1071   1.804       .  S
C1068      C1069   1.392       .  A
C1069      H1076   1.086       .  S
C1069      C1070   1.401       .  A
C1070      S1072   1.805       .  S
S1071      H1074   1.406       .  S
S1072      H1073   1.400       .  S
C1077      C1078   1.401       .  A
C1078      H1087   1.084       .  S
C1078      C1079   1.402       .  A
C1079      C1080   1.438       .  A
C1079      S1083   1.810       .  S
C1081      H1088   1.072       .  S
C1081      C1082   1.390       .  A
C1082      S1084   1.796       .  S
S1083      H1086   1.397       .  S
S1084      H1085   1.408       .  S
C1089      C1090   1.419       .  A
C1090      H1099   1.078       .  S
C1090      C1091   1.403       .  A
C1091      C1092   1.412       .  A
C1091      S1095   1.803       .  S
C1092      C1093   1.395       .  A
C1094      S1096   1.809       .  S
S1095      H1098   1.407       .  S
S1096      H1097   1.399       .  S
C1101      C1102   1.415       .  A
C1101      C1106   1.424       .  A
C1102      H1111   1.077       .  S
C1102      C1103   1.395       .  A
C1103      C1104   1.436       .  A
C1103      S1107   1.809       .  S
C1104      C1105   1.418       .  A
C1105      H1112   1.082       .  S
C1105      C1106   1.396       .  A
C1106      S1108   1.807       .  S
S1107      H1110   1.394       .  S
S1108      H1109   1.407       .  S
C1113      C1621   1.586   1_554  S
C1113      C1636   1.565   1_554  S
C1113      C1645   1.580   1_554  S
C1113      C1379   1.585       .  S
C1114      C1307   1.573       .  S
C1114      C1319   1.595       .  S
C1114      C1334   1.565       .  S
C1114      C1382   1.577       .  S
C1115      C1262   1.574       .  S
C1115      C1271   1.547       .  S
C1115      C1283   1.583       .  S
C1115      C1298   1.604       .  S
C1116      C1226   1.572       .  S
C1116      C1235   1.598       .  S
C1116      C1250   1.588       .  S
C1116      C1295   1.564       .  S
C1117      N1135   1.350       .  A
C1117      C1154   1.466       .  S
C1117      C1370   1.487       .  S
N1118      N1135   1.325       .  A
N1118      N1140   1.319       .  A
N1118     Co1711   2.079   1_545  S
C1119      N1144   1.339       .  A
C1119      C1157   1.457       .  S
C1119      H1164   1.081       .  S
H1120      C1161   1.081       .  S
C1121      N1145   1.341       .  A
C1121      C1681   1.459       .  S
C1121      H1150   1.082       .  S
Co1122     N1130   2.081       .  S
Co1122     N1440   2.101       .  S
Co1122     N1138   2.097       .  S
N1123      C1161   1.339       .  A
N1123      N1130   1.320       .  A
N1123     Co1124   2.071       .  S
Co1124     N1127   2.104       .  S
Co1124     N1144   2.088       .  S
Co1124     N1687   2.066   1_545  S
C1125      C1677   1.459   1_545  S
C1125      C1200   1.479       .  S
N1126      N1133   1.319       .  A
N1126      N1156   1.324       .  A
N1126     Co1159   2.078       .  S
N1127      N1163   1.329       .  A
N1128      C1157   1.355       .  A
N1128      N1138   1.327       .  A
H1129      C1154   1.081   1_455  S
N1130      N1151   1.320       .  A
N1131      N1149   1.317       .  A
N1131      N1136   1.322       .  A
N1131     Co1680   2.066       .  S
C1132      N1136   1.346       .  A
C1132      C1160   1.455       .  S
C1132      C1274   1.462       .  S
N1133      C1148   1.334       .  A
N1133     Co1155   2.067       .  S
C1134      N1162   1.344       .  A
C1134      H1168   1.082       .  S
C1137      N1158   1.352       .  A
C1137      C1206   1.482       .  S
N1138      N1144   1.321       .  A
N1139      C1165   1.334       .  A
N1139      N1141   1.318       .  A
N1139     Co1155   2.072       .  S
N1140      C1154   1.341       .  A
N1141      N1169   1.322       .  A
N1141     Co1159   2.075       .  S
H1142      C1443   1.078   1_554  S
H1143      C1160   1.081       .  S
N1145     Co1159   2.087       .  S
N1146      N1158   1.329       .  A
N1146     Co1433   2.092   1_554  S
C1147      N1151   1.347       .  A
C1147      C1161   1.461       .  S
C1147      C1259   1.473       .  S
C1148      C1167   1.450       .  S
C1148      H1152   1.081       .  S
N1149      C1160   1.336       .  A
C1153      N1169   1.349       .  A
C1153      C1165   1.466       .  S
C1153      C1355   1.482       .  S
Co1155     N1674   2.079       .  S
Co1155     N1424   2.092       .  S
Co1155    Cl1722   2.450       .  S
N1156      C1167   1.349       .  A
C1157      C1346   1.474       .  S
Co1159    Cl1722   2.448       .  S
N1162     Co1400   2.101   1_554  S
C1165      H1420   1.078       .  S
Cl1166    Co1711   2.450   1_545  S
Cl1166    Co1715   2.448   1_545  S
C1167      C1286   1.458       .  S
C1170      N1188   1.349       .  A
C1170      C1207   1.467       .  S
C1170      C1247   1.485       .  S
N1171      N1188   1.326       .  A
N1171      N1193   1.321       .  A
N1171     Co1208   2.091       .  S
C1172      N1197   1.347       .  A
C1172      C1210   1.463       .  S
C1172      H1217   1.081       .  S
H1173      C1214   1.082       .  S
C1174      N1198   1.336       .  A
C1174      C1178   1.447       .  S
C1174      H1203   1.082       .  S
Co1175     N1193   2.097       .  S
Co1175     N1183   2.094       .  S
Co1175     N1215   2.075       .  S
Co1175    Cl1775   2.444       .  S
N1176      C1214   1.346       .  A
N1176     Co1177   2.095       .  S
Co1177     N1180   2.102       .  S
Co1177     N1753   2.098   1_545  S
Co1177     N1184   2.071       .  S
C1178      N1216   1.355       .  A
C1178      C1223   1.468       .  S
N1179      N1186   1.317       .  A
N1179      N1209   1.320       .  A
N1180      N1198   1.320       .  A
N1180      N1216   1.328       .  A
N1181      C1210   1.352       .  A
N1181      N1191   1.326       .  A
H1182      C1207   1.082       .  S
N1183      N1204   1.326       .  A
N1184      N1202   1.320       .  A
N1184      N1189   1.320       .  A
C1185      N1189   1.344       .  A
C1185      C1213   1.454       .  S
C1185      C1310   1.455       .  S
N1186      C1201   1.343       .  A
N1186     Co1764   2.090   1_545  S
C1187      N1215   1.337       .  A
C1187      C1190   1.452       .  S
C1187      H1221   1.082       .  S
C1190      N1211   1.358       .  A
C1190      C1322   1.483       .  S
N1191      N1197   1.321       .  A
N1192      C1218   1.349       .  A
N1192     Co1208   2.112       .  S
N1193      C1207   1.343       .  A
N1194      N1222   1.325       .  A
N1194     Co1212   2.084       .  S
H1195      C1218   1.082       .  S
H1196      C1213   1.082       .  S
N1197     Co1733   2.098       .  S
N1198     Co1212   2.069       .  S
N1199      N1211   1.329       .  A
N1199      N1215   1.321       .  A
N1199     Co1208   2.108       .  S
C1200      N1760   1.351   1_545  A
C1201      C1220   1.468       .  S
C1201      H1205   1.081       .  S
N1202      C1213   1.339       .  A
N1202     Co1212   2.069       .  S
N1204      C1756   1.351       .  A
C1206      C1218   1.470       .  S
Co1208     N1742   2.090       .  S
Co1208    Cl1775   2.466       .  S
N1209      C1220   1.344       .  A
C1210      C1238   1.483       .  S
Cl1219    Co1731   2.444   1_545  S
Cl1219    Co1764   2.466   1_545  S
C1220      C1331   1.483       .  S
C1223      C1224   1.398       .  A
C1223      C1228   1.403       .  A
C1224      H1233   1.084       .  S
C1224      C1225   1.403       .  A
C1225      C1226   1.434       .  A
C1225      S1229   1.805       .  S
C1226      C1227   1.421       .  A
C1227      H1234   1.073       .  S
C1227      C1228   1.399       .  A
C1228      S1230   1.805       .  S
S1229      H1232   1.400       .  S
S1230      H1231   1.405       .  S
C1235      C1236   1.419       .  A
C1235      C1240   1.450       .  A
C1236      H1245   1.079       .  S
C1236      C1237   1.411       .  A
C1237      C1238   1.410       .  A
C1237      S1241   1.804       .  S
C1238      C1239   1.388       .  A
C1239      H1246   1.084       .  S
C1239      C1240   1.400       .  A
C1240      S1242   1.816       .  S
S1241      H1244   1.405       .  S
S1242      H1243   1.407       .  S
C1247      C1248   1.392       .  A
C1247      C1252   1.408       .  A
C1248      H1257   1.082       .  S
C1248      C1249   1.403       .  A
C1249      C1250   1.442       .  A
C1249      S1253   1.805       .  S
C1250      C1251   1.421       .  A
C1251      H1258   1.075       .  S
C1251      C1252   1.405       .  A
C1252      S1254   1.803       .  S
S1253      H1256   1.407       .  S
S1254      H1811   1.406       .  S
H1255      S1810   1.406       .  S
C1259      C1260   1.396       .  A
C1259      C1264   1.407       .  A
C1260      H1269   1.083       .  S
C1260      C1261   1.400       .  A
C1261      C1262   1.439       .  A
C1261      S1265   1.813       .  S
C1262      C1263   1.423       .  A
C1263      H1270   1.084       .  S
C1263      C1264   1.393       .  A
C1264      S1266   1.801       .  S
S1265      H1268   1.407       .  S
S1266      H1267   1.407       .  S
C1271      C1272   1.420       .  A
C1271      C1276   1.432       .  A
C1272      H1281   1.083       .  S
C1272      C1273   1.387       .  A
C1273      C1274   1.402       .  A
C1273      S1277   1.803       .  S
C1274      C1275   1.397       .  A
C1275      H1282   1.083       .  S
C1275      C1276   1.403       .  A
C1276      S1278   1.811       .  S
S1277      H1280   1.408       .  S
S1278      H1279   1.406       .  S
C1283      C1284   1.415       .  A
C1283      C1288   1.444       .  A
C1284      H1293   1.048       .  S
C1284      C1285   1.391       .  A
C1285      C1286   1.394       .  A
C1285      S1289   1.806       .  S
C1286      C1287   1.394       .  A
C1287      H1294   1.085       .  S
C1287      C1288   1.399       .  A
C1288      S1290   1.811       .  S
S1289      H1292   1.405       .  S
S1290      H1291   1.401       .  S
C1295      C1296   1.413       .  A
C1295      C1300   1.430       .  A
C1296      H1305   1.083       .  S
C1296      C1297   1.398       .  A
C1297      C1298   1.436       .  A
C1297      S1301   1.823       .  S
C1298      C1299   1.419       .  A
C1299      H1306   1.071       .  S
C1299      C1300   1.395       .  A
C1300      S1302   1.811       .  S
S1301      H1304   1.408       .  S
S1302      H1303   1.408       .  S
C1307      C1308   1.420       .  A
C1307      C1312   1.443       .  A
C1308      H1317   1.074       .  S
C1308      C1309   1.395       .  A
C1309      C1310   1.402       .  A
C1309      S1313   1.807       .  S
C1310      C1311   1.384       .  A
C1311      H1318   1.084       .  S
C1311      C1312   1.396       .  A
C1312      S1314   1.805       .  S
S1313      H1316   1.405       .  S
S1314      H1315   1.408       .  S
C1319      C1320   1.428       .  A
C1319      C1324   1.434       .  A
C1320      H1329   1.079       .  S
C1320      C1321   1.400       .  A
C1321      C1322   1.398       .  A
C1321      S1325   1.799       .  S
C1322      C1323   1.399       .  A
C1323      H1330   1.082       .  S
C1323      C1324   1.407       .  A
C1324      S1326   1.804       .  S
S1325      H1328   1.407       .  S
S1326      H1327   1.407       .  S
C1331      C1332   1.397       .  A
C1331      C1336   1.411       .  A
C1332      H1341   1.082       .  S
C1332      C1333   1.401       .  A
C1333      C1334   1.442       .  A
C1333      S1337   1.810       .  S
C1334      C1335   1.419       .  A
C1335      H1342   1.082       .  S
C1335      C1336   1.395       .  A
C1336      S1338   1.801       .  S
S1337      H1340   1.395       .  S
S1338      H1339   1.408       .  S
C1343      C1391   1.586       .  S
C1343      C1622   1.426       .  A
C1343      C1348   1.448       .  A
C1344      H1353   1.083       .  S
C1344      C1621   1.426   1_554  A
C1344      C1345   1.401   1_554  A
C1345      C1624   1.401       .  A
C1345      S1349   1.804   1_556  S
C1346      C1623   1.401       .  A
C1346      C1347   1.392       .  A
C1347      H1354   1.086       .  S
C1347      C1348   1.401       .  A
C1348      S1350   1.805       .  S
S1349      H1352   1.406       .  S
S1350      H1351   1.400       .  S
C1355      C1356   1.401       .  A
C1355      C1638   1.403       .  A
C1356      H1365   1.084       .  S
C1356      C1357   1.402       .  A
C1357      C1358   1.438       .  A
C1357      S1361   1.810       .  S
C1358      C1391   1.565       .  S
C1358      C1637   1.419       .  A
C1359      H1366   1.072       .  S
C1359      C1636   1.419   1_554  A
C1359      C1360   1.390       .  A
C1360      C1633   1.403   1_554  A
C1360      S1362   1.796       .  S
S1361      H1364   1.397       .  S
S1362      H1363   1.408       .  S
C1367      C1391   1.580       .  S
C1367      C1368   1.419       .  A
C1367      C1650   1.442       .  A
C1368      H1377   1.078       .  S
C1368      C1369   1.403       .  A
C1369      C1370   1.412       .  A
C1369      S1373   1.803       .  S
C1370      C1371   1.395       .  A
C1371      H1656   1.083       .  S
C1371      C1650   1.396       .  A
C1372      C1645   1.442       .  A
C1372      C1649   1.396       .  A
C1372      S1374   1.809   1_556  S
S1373      H1376   1.407       .  S
S1374      H1375   1.399       .  S
H1378      C1649   1.083       .  S
C1379      C1380   1.415       .  A
C1379      C1384   1.424       .  A
C1380      H1389   1.077       .  S
C1380      C1381   1.395       .  A
C1381      C1382   1.436       .  A
C1381      S1385   1.809       .  S
C1382      C1383   1.418       .  A
C1383      H1390   1.082       .  S
C1383      C1384   1.396       .  A
C1384      S1386   1.807       .  S
S1385      H1388   1.394       .  S
S1386      H1387   1.407       .  S
C1391      C1657   1.585       .  S
C1392      C1585   1.573       .  S
C1392      C1597   1.595       .  S
C1392      C1612   1.565       .  S
C1392      C1660   1.577       .  S
C1393      C1540   1.574       .  S
C1393      C1549   1.547       .  S
C1393      C1561   1.583       .  S
C1393      C1576   1.604       .  S
C1394      C1504   1.572       .  S
C1394      C1513   1.598       .  S
C1394      C1528   1.588       .  S
C1394      C1573   1.564       .  S
C1395      N1413   1.350       .  A
C1395      C1432   1.466       .  S
C1395      C1648   1.487       .  S
N1396      N1413   1.325       .  A
N1396      N1418   1.319       .  A
N1396     Co1989   2.079   1_545  S
C1397      N1422   1.339       .  A
C1397      C1435   1.457       .  S
C1397      H1442   1.081       .  S
H1398      C1439   1.081       .  S
C1399      N1423   1.341       .  A
C1399      C1959   1.459       .  S
C1399      H1428   1.082       .  S
Co1400     N1408   2.081       .  S
Co1400     N1416   2.097       .  S
N1401      C1439   1.339       .  A
N1401      N1408   1.320       .  A
N1401     Co1402   2.071       .  S
Co1402     N1405   2.104       .  S
Co1402     N1422   2.088       .  S
Co1402     N1965   2.066   1_545  S
C1403      C1955   1.459   1_545  S
C1403      C1478   1.479       .  S
N1404      N1411   1.319       .  A
N1404      N1434   1.324       .  A
N1404     Co1437   2.078       .  S
N1405      N1441   1.329       .  A
N1406      C1435   1.355       .  A
N1406      N1416   1.327       .  A
H1407      C1432   1.081   1_455  S
N1408      N1429   1.320       .  A
N1409      N1427   1.317       .  A
N1409      N1414   1.322       .  A
N1409     Co1958   2.066       .  S
C1410      N1414   1.346       .  A
C1410      C1438   1.455       .  S
C1410      C1552   1.462       .  S
N1411      C1426   1.334       .  A
N1411     Co1433   2.067       .  S
C1412      N1440   1.344       .  A
C1412      H1446   1.082       .  S
C1415      N1436   1.352       .  A
C1415      C1484   1.482       .  S
N1416      N1422   1.321       .  A
N1417      C1443   1.334       .  A
N1417      N1419   1.318       .  A
N1417     Co1433   2.072       .  S
N1418      C1432   1.341       .  A
N1419      N1447   1.322       .  A
N1419     Co1437   2.075       .  S
H1421      C1438   1.081       .  S
N1423     Co1437   2.087       .  S
N1424      N1436   1.329       .  A
C1425      N1429   1.347       .  A
C1425      C1439   1.461       .  S
C1425      C1537   1.473       .  S
C1426      C1445   1.450       .  S
C1426      H1430   1.081       .  S
N1427      C1438   1.336       .  A
C1431      N1447   1.349       .  A
C1431      C1443   1.466       .  S
C1431      C1633   1.482       .  S
Co1433     N1952   2.079       .  S
Co1433    Cl2000   2.450       .  S
N1434      C1445   1.349       .  A
C1435      C1624   1.474       .  S
Co1437    Cl2000   2.448       .  S
Cl1444    Co1989   2.450   1_545  S
Cl1444    Co1993   2.448   1_545  S
C1445      C1564   1.458       .  S
C1448      N1466   1.349       .  A
C1448      C1485   1.467       .  S
C1448      C1525   1.485       .  S
N1449      N1466   1.326       .  A
N1449      N1471   1.321       .  A
N1449     Co1486   2.091       .  S
C1450      N1475   1.347       .  A
C1450      C1488   1.463       .  S
C1450      H1495   1.081       .  S
H1451      C1492   1.082       .  S
C1452      N1476   1.336       .  A
C1452      C1456   1.447       .  S
C1452      H1481   1.082       .  S
Co1453     N1471   2.097       .  S
Co1453     N1461   2.094       .  S
Co1453     N1493   2.075       .  S
Co1453    Cl2053   2.444       .  S
N1454      C1492   1.346       .  A
N1454     Co1455   2.095       .  S
Co1455     N1458   2.102       .  S
Co1455     N2031   2.098   1_545  S
Co1455     N1462   2.071       .  S
C1456      N1494   1.355       .  A
C1456      C1501   1.468       .  S
N1457      N1464   1.317       .  A
N1457      N1487   1.320       .  A
N1458      N1476   1.320       .  A
N1458      N1494   1.328       .  A
N1459      C1488   1.352       .  A
N1459      N1469   1.326       .  A
H1460      C1485   1.082       .  S
N1461      N1482   1.326       .  A
N1462      N1480   1.320       .  A
N1462      N1467   1.320       .  A
C1463      N1467   1.344       .  A
C1463      C1491   1.454       .  S
C1463      C1588   1.455       .  S
N1464      C1479   1.343       .  A
N1464     Co2042   2.090   1_545  S
C1465      N1493   1.337       .  A
C1465      C1468   1.452       .  S
C1465      H1499   1.082       .  S
C1468      N1489   1.358       .  A
C1468      C1600   1.483       .  S
N1469      N1475   1.321       .  A
N1470      C1496   1.349       .  A
N1470     Co1486   2.112       .  S
N1471      C1485   1.343       .  A
N1472      N1500   1.325       .  A
N1472     Co1490   2.084       .  S
H1473      C1496   1.082       .  S
H1474      C1491   1.082       .  S
N1475     Co2011   2.098       .  S
N1476     Co1490   2.069       .  S
N1477      N1489   1.329       .  A
N1477      N1493   1.321       .  A
N1477     Co1486   2.108       .  S
C1478      N2038   1.351   1_545  A
C1479      C1498   1.468       .  S
C1479      H1483   1.081       .  S
N1480      C1491   1.339       .  A
N1480     Co1490   2.069       .  S
N1482      C2034   1.351       .  A
C1484      C1496   1.470       .  S
Co1486     N2020   2.090       .  S
Co1486    Cl2053   2.466       .  S
N1487      C1498   1.344       .  A
C1488      C1516   1.483       .  S
Cl1497    Co2009   2.444   1_545  S
Cl1497    Co2042   2.466   1_545  S
C1498      C1609   1.483       .  S
C1501      C1502   1.398       .  A
C1501      C1506   1.403       .  A
C1502      H1511   1.084       .  S
C1502      C1503   1.403       .  A
C1503      C1504   1.434       .  A
C1503      S1507   1.805       .  S
C1504      C1505   1.421       .  A
C1505      H1512   1.073       .  S
C1505      C1506   1.399       .  A
C1506      S1508   1.805       .  S
S1507      H1510   1.400       .  S
S1508      H1509   1.405       .  S
C1513      C1514   1.419       .  A
C1513      C1518   1.450       .  A
C1514      H1523   1.079       .  S
C1514      C1515   1.411       .  A
C1515      C1516   1.410       .  A
C1515      S1519   1.804       .  S
C1516      C1517   1.388       .  A
C1517      H1524   1.084       .  S
C1517      C1518   1.400       .  A
C1518      S1520   1.816       .  S
S1519      H1522   1.405       .  S
S1520      H1521   1.407       .  S
C1525      C1526   1.392       .  A
C1525      C1530   1.408       .  A
C1526      H1535   1.082       .  S
C1526      C1527   1.403       .  A
C1527      C1528   1.442       .  A
C1527      S1531   1.805       .  S
C1528      C1529   1.421       .  A
C1529      H1536   1.075       .  S
C1529      C1530   1.405       .  A
C1530      S1532   1.803       .  S
S1531      H1534   1.407       .  S
S1532      H2089   1.406       .  S
H1533      S2088   1.406       .  S
C1537      C1538   1.396       .  A
C1537      C1542   1.407       .  A
C1538      H1547   1.083       .  S
C1538      C1539   1.400       .  A
C1539      C1540   1.439       .  A
C1539      S1543   1.813       .  S
C1540      C1541   1.423       .  A
C1541      H1548   1.084       .  S
C1541      C1542   1.393       .  A
C1542      S1544   1.801       .  S
S1543      H1546   1.407       .  S
S1544      H1545   1.407       .  S
C1549      C1550   1.420       .  A
C1549      C1554   1.432       .  A
C1550      H1559   1.083       .  S
C1550      C1551   1.387       .  A
C1551      C1552   1.402       .  A
C1551      S1555   1.803       .  S
C1552      C1553   1.397       .  A
C1553      H1560   1.083       .  S
C1553      C1554   1.403       .  A
C1554      S1556   1.811       .  S
S1555      H1558   1.408       .  S
S1556      H1557   1.406       .  S
C1561      C1562   1.415       .  A
C1561      C1566   1.444       .  A
C1562      H1571   1.048       .  S
C1562      C1563   1.391       .  A
C1563      C1564   1.394       .  A
C1563      S1567   1.806       .  S
C1564      C1565   1.394       .  A
C1565      H1572   1.085       .  S
C1565      C1566   1.399       .  A
C1566      S1568   1.811       .  S
S1567      H1570   1.405       .  S
S1568      H1569   1.401       .  S
C1573      C1574   1.413       .  A
C1573      C1578   1.430       .  A
C1574      H1583   1.083       .  S
C1574      C1575   1.398       .  A
C1575      C1576   1.436       .  A
C1575      S1579   1.823       .  S
C1576      C1577   1.419       .  A
C1577      H1584   1.071       .  S
C1577      C1578   1.395       .  A
C1578      S1580   1.811       .  S
S1579      H1582   1.408       .  S
S1580      H1581   1.408       .  S
C1585      C1586   1.420       .  A
C1585      C1590   1.443       .  A
C1586      H1595   1.074       .  S
C1586      C1587   1.395       .  A
C1587      C1588   1.402       .  A
C1587      S1591   1.807       .  S
C1588      C1589   1.384       .  A
C1589      H1596   1.084       .  S
C1589      C1590   1.396       .  A
C1590      S1592   1.805       .  S
S1591      H1594   1.405       .  S
S1592      H1593   1.408       .  S
C1597      C1598   1.428       .  A
C1597      C1602   1.434       .  A
C1598      H1607   1.079       .  S
C1598      C1599   1.400       .  A
C1599      C1600   1.398       .  A
C1599      S1603   1.799       .  S
C1600      C1601   1.399       .  A
C1601      H1608   1.082       .  S
C1601      C1602   1.407       .  A
C1602      S1604   1.804       .  S
S1603      H1606   1.407       .  S
S1604      H1605   1.407       .  S
C1609      C1610   1.397       .  A
C1609      C1614   1.411       .  A
C1610      H1619   1.082       .  S
C1610      C1611   1.401       .  A
C1611      C1612   1.442       .  A
C1611      S1615   1.810       .  S
C1612      C1613   1.419       .  A
C1613      H1620   1.082       .  S
C1613      C1614   1.395       .  A
C1614      S1616   1.801       .  S
S1615      H1618   1.395       .  S
S1616      H1617   1.408       .  S
C1621      C1626   1.448       .  A
C1622      H1631   1.083       .  S
C1622      C1623   1.401       .  A
C1623      S1627   1.804       .  S
C1624      C1625   1.392       .  A
C1625      H1632   1.086       .  S
C1625      C1626   1.401       .  A
C1626      S1628   1.805       .  S
S1627      H1630   1.406       .  S
S1628      H1629   1.400       .  S
C1633      C1634   1.401       .  A
C1634      H1643   1.084       .  S
C1634      C1635   1.402       .  A
C1635      C1636   1.438       .  A
C1635      S1639   1.810       .  S
C1637      H1644   1.072       .  S
C1637      C1638   1.390       .  A
C1638      S1640   1.796       .  S
S1639      H1642   1.397       .  S
S1640      H1641   1.408       .  S
C1645      C1646   1.419       .  A
C1646      H1655   1.078       .  S
C1646      C1647   1.403       .  A
C1647      C1648   1.412       .  A
C1647      S1651   1.803       .  S
C1648      C1649   1.395       .  A
C1650      S1652   1.809       .  S
S1651      H1654   1.407       .  S
S1652      H1653   1.399       .  S
C1657      C1658   1.415       .  A
C1657      C1662   1.424       .  A
C1658      H1667   1.077       .  S
C1658      C1659   1.395       .  A
C1659      C1660   1.436       .  A
C1659      S1663   1.809       .  S
C1660      C1661   1.418       .  A
C1661      H1668   1.082       .  S
C1661      C1662   1.396       .  A
C1662      S1664   1.807       .  S
S1663      H1666   1.394       .  S
S1664      H1665   1.407       .  S
C1669      C2177   1.586   1_554  S
C1669      C2192   1.565   1_554  S
C1669      C2201   1.580   1_554  S
C1669      C1935   1.585       .  S
C1670      C1863   1.573       .  S
C1670      C1875   1.595       .  S
C1670      C1890   1.565       .  S
C1670      C1938   1.577       .  S
C1671      C1818   1.574       .  S
C1671      C1827   1.547       .  S
C1671      C1839   1.583       .  S
C1671      C1854   1.604       .  S
C1672      C1782   1.572       .  S
C1672      C1791   1.598       .  S
C1672      C1806   1.588       .  S
C1672      C1851   1.564       .  S
C1673      N1691   1.350       .  A
C1673      C1710   1.466       .  S
C1673      C1926   1.487       .  S
N1674      N1691   1.325       .  A
N1674      N1696   1.319       .  A
C1675      N1700   1.339       .  A
C1675      C1713   1.457       .  S
C1675      H1720   1.081       .  S
H1676      C1717   1.081       .  S
C1677      N1701   1.341       .  A
C1677      H1706   1.082       .  S
Co1678     N1686   2.081       .  S
Co1678     N1996   2.101       .  S
Co1678     N1694   2.097       .  S
N1679      C1717   1.339       .  A
N1679      N1686   1.320       .  A
N1679     Co1680   2.071       .  S
Co1680     N1683   2.104       .  S
Co1680     N1700   2.088       .  S
C1681      C1756   1.479       .  S
N1682      N1689   1.319       .  A
N1682      N1712   1.324       .  A
N1682     Co1715   2.078       .  S
N1683      N1719   1.329       .  A
N1684      C1713   1.355       .  A
N1684      N1694   1.327       .  A
H1685      C1710   1.081   1_455  S
N1686      N1707   1.320       .  A
N1687      N1705   1.317       .  A
N1687      N1692   1.322       .  A
C1688      N1692   1.346       .  A
C1688      C1716   1.455       .  S
C1688      C1830   1.462       .  S
N1689      C1704   1.334       .  A
N1689     Co1711   2.067       .  S
C1690      N1718   1.344       .  A
C1690      H1724   1.082       .  S
C1693      N1714   1.352       .  A
C1693      C1762   1.482       .  S
N1694      N1700   1.321       .  A
N1695      C1721   1.334       .  A
N1695      N1697   1.318       .  A
N1695     Co1711   2.072       .  S
N1696      C1710   1.341       .  A
N1697      N1725   1.322       .  A
N1697     Co1715   2.075       .  S
H1698      C1999   1.078   1_554  S
H1699      C1716   1.081       .  S
N1701     Co1715   2.087       .  S
N1702      N1714   1.329       .  A
N1702     Co1989   2.092   1_554  S
C1703      N1707   1.347       .  A
C1703      C1717   1.461       .  S
C1703      C1815   1.473       .  S
C1704      C1723   1.450       .  S
C1704      H1708   1.081       .  S
N1705      C1716   1.336       .  A
C1709      N1725   1.349       .  A
C1709      C1721   1.466       .  S
C1709      C1911   1.482       .  S
Co1711     N1980   2.092       .  S
N1712      C1723   1.349       .  A
C1713      C1902   1.474       .  S
N1718     Co1956   2.101   1_554  S
C1721      H1976   1.078       .  S
C1723      C1842   1.458       .  S
C1726      N1744   1.349       .  A
C1726      C1763   1.467       .  S
C1726      C1803   1.485       .  S
N1727      N1744   1.326       .  A
N1727      N1749   1.321       .  A
N1727     Co1764   2.091       .  S
C1728      N1753   1.347       .  A
C1728      C1766   1.463       .  S
C1728      H1773   1.081   1_565  S
H1729      C1770   1.082       .  S
C1730      N1754   1.336       .  A
C1730      C1734   1.447       .  S
C1730      H1759   1.082       .  S
Co1731     N1749   2.097       .  S
Co1731     N1739   2.094       .  S
Co1731     N1771   2.075       .  S
N1732      C1770   1.346       .  A
N1732     Co1733   2.095       .  S
Co1733     N1736   2.102       .  S
Co1733     N1740   2.071       .  S
C1734      N1772   1.355       .  A
C1734      C1779   1.468       .  S
N1735      N1742   1.317       .  A
N1735      N1765   1.320       .  A
N1736      N1754   1.320       .  A
N1736      N1772   1.328       .  A
N1737      C1766   1.352       .  A
N1737      N1747   1.326       .  A
H1738      C1763   1.082       .  S
N1739      N1760   1.326       .  A
N1740      N1758   1.320       .  A
N1740      N1745   1.320       .  A
C1741      N1745   1.344       .  A
C1741      C1769   1.454       .  S
C1741      C1866   1.455       .  S
N1742      C1757   1.343       .  A
C1743      N1771   1.337       .  A
C1743      C1746   1.452       .  S
C1743      H1777   1.082       .  S
C1746      N1767   1.358       .  A
C1746      C1878   1.483       .  S
N1747      N1753   1.321       .  A
N1748      C1774   1.349       .  A
N1748     Co1764   2.112       .  S
N1749      C1763   1.343       .  A
N1750      N1778   1.325       .  A
N1750     Co1768   2.084       .  S
H1751      C1774   1.082       .  S
H1752      C1769   1.082       .  S
N1754     Co1768   2.069       .  S
N1755      N1767   1.329       .  A
N1755      N1771   1.321       .  A
N1755     Co1764   2.108       .  S
C1757      C1776   1.468       .  S
C1757      H1761   1.081       .  S
N1758      C1769   1.339       .  A
N1758     Co1768   2.069       .  S
C1762      C1774   1.470       .  S
N1765      C1776   1.344       .  A
C1766      C1794   1.483       .  S
C1776      C1887   1.483       .  S
C1779      C1780   1.398       .  A
C1779      C1784   1.403       .  A
C1780      H1789   1.084       .  S
C1780      C1781   1.403       .  A
C1781      C1782   1.434       .  A
C1781      S1785   1.805       .  S
C1782      C1783   1.421       .  A
C1783      H1790   1.073       .  S
C1783      C1784   1.399       .  A
C1784      S1786   1.805       .  S
S1785      H1788   1.400       .  S
S1786      H1787   1.405       .  S
C1791      C1792   1.419       .  A
C1791      C1796   1.450       .  A
C1792      H1801   1.079       .  S
C1792      C1793   1.411       .  A
C1793      C1794   1.410       .  A
C1793      S1797   1.804       .  S
C1794      C1795   1.388       .  A
C1795      H1802   1.084       .  S
C1795      C1796   1.400       .  A
C1796      S1798   1.816       .  S
S1797      H1800   1.405       .  S
S1798      H1799   1.407       .  S
C1803      C1804   1.392       .  A
C1803      C1808   1.408       .  A
C1804      H1813   1.082       .  S
C1804      C1805   1.403       .  A
C1805      C1806   1.442       .  A
C1805      S1809   1.805       .  S
C1806      C1807   1.421       .  A
C1807      H1814   1.075       .  S
C1807      C1808   1.405       .  A
C1808      S1810   1.803       .  S
S1809      H1812   1.407       .  S
C1815      C1816   1.396       .  A
C1815      C1820   1.407       .  A
C1816      H1825   1.083       .  S
C1816      C1817   1.400       .  A
C1817      C1818   1.439       .  A
C1817      S1821   1.813       .  S
C1818      C1819   1.423       .  A
C1819      H1826   1.084       .  S
C1819      C1820   1.393       .  A
C1820      S1822   1.801       .  S
S1821      H1824   1.407       .  S
S1822      H1823   1.407       .  S
C1827      C1828   1.420       .  A
C1827      C1832   1.432       .  A
C1828      H1837   1.083       .  S
C1828      C1829   1.387       .  A
C1829      C1830   1.402       .  A
C1829      S1833   1.803       .  S
C1830      C1831   1.397       .  A
C1831      H1838   1.083       .  S
C1831      C1832   1.403       .  A
C1832      S1834   1.811       .  S
S1833      H1836   1.408       .  S
S1834      H1835   1.406       .  S
C1839      C1840   1.415       .  A
C1839      C1844   1.444       .  A
C1840      H1849   1.048       .  S
C1840      C1841   1.391       .  A
C1841      C1842   1.394       .  A
C1841      S1845   1.806       .  S
C1842      C1843   1.394       .  A
C1843      H1850   1.085       .  S
C1843      C1844   1.399       .  A
C1844      S1846   1.811       .  S
S1845      H1848   1.405       .  S
S1846      H1847   1.401       .  S
C1851      C1852   1.413       .  A
C1851      C1856   1.430       .  A
C1852      H1861   1.083       .  S
C1852      C1853   1.398       .  A
C1853      C1854   1.436       .  A
C1853      S1857   1.823       .  S
C1854      C1855   1.419       .  A
C1855      H1862   1.071       .  S
C1855      C1856   1.395       .  A
C1856      S1858   1.811       .  S
S1857      H1860   1.408       .  S
S1858      H1859   1.408       .  S
C1863      C1864   1.420       .  A
C1863      C1868   1.443       .  A
C1864      H1873   1.074       .  S
C1864      C1865   1.395       .  A
C1865      C1866   1.402       .  A
C1865      S1869   1.807       .  S
C1866      C1867   1.384       .  A
C1867      H1874   1.084       .  S
C1867      C1868   1.396       .  A
C1868      S1870   1.805       .  S
S1869      H1872   1.405       .  S
S1870      H1871   1.408       .  S
C1875      C1876   1.428       .  A
C1875      C1880   1.434       .  A
C1876      H1885   1.079       .  S
C1876      C1877   1.400       .  A
C1877      C1878   1.398       .  A
C1877      S1881   1.799       .  S
C1878      C1879   1.399       .  A
C1879      H1886   1.082       .  S
C1879      C1880   1.407       .  A
C1880      S1882   1.804       .  S
S1881      H1884   1.407       .  S
S1882      H1883   1.407       .  S
C1887      C1888   1.397       .  A
C1887      C1892   1.411       .  A
C1888      H1897   1.082       .  S
C1888      C1889   1.401       .  A
C1889      C1890   1.442       .  A
C1889      S1893   1.810       .  S
C1890      C1891   1.419       .  A
C1891      H1898   1.082       .  S
C1891      C1892   1.395       .  A
C1892      S1894   1.801       .  S
S1893      H1896   1.395       .  S
S1894      H1895   1.408       .  S
C1899      C1947   1.586       .  S
C1899      C2178   1.426       .  A
C1899      C1904   1.448       .  A
C1900      H1909   1.083       .  S
C1900      C2177   1.426   1_554  A
C1900      C1901   1.401   1_554  A
C1901      C2180   1.401       .  A
C1901      S1905   1.804   1_556  S
C1902      C2179   1.401       .  A
C1902      C1903   1.392       .  A
C1903      H1910   1.086       .  S
C1903      C1904   1.401       .  A
C1904      S1906   1.805       .  S
S1905      H1908   1.406       .  S
S1906      H1907   1.400       .  S
C1911      C1912   1.401       .  A
C1911      C2194   1.403       .  A
C1912      H1921   1.084       .  S
C1912      C1913   1.402       .  A
C1913      C1914   1.438       .  A
C1913      S1917   1.810       .  S
C1914      C1947   1.565       .  S
C1914      C2193   1.419       .  A
C1915      H1922   1.072       .  S
C1915      C2192   1.419   1_554  A
C1915      C1916   1.390       .  A
C1916      C2189   1.403   1_554  A
C1916      S1918   1.796       .  S
S1917      H1920   1.397       .  S
S1918      H1919   1.408       .  S
C1923      C1947   1.580       .  S
C1923      C1924   1.419       .  A
C1923      C2206   1.442       .  A
C1924      H1933   1.078       .  S
C1924      C1925   1.403       .  A
C1925      C1926   1.412       .  A
C1925      S1929   1.803       .  S
C1926      C1927   1.395       .  A
C1927      H2212   1.083       .  S
C1927      C2206   1.396       .  A
C1928      C2201   1.442       .  A
C1928      C2205   1.396       .  A
C1928      S1930   1.809   1_556  S
S1929      H1932   1.407       .  S
S1930      H1931   1.399       .  S
H1934      C2205   1.083       .  S
C1935      C1936   1.415       .  A
C1935      C1940   1.424       .  A
C1936      H1945   1.077       .  S
C1936      C1937   1.395       .  A
C1937      C1938   1.436       .  A
C1937      S1941   1.809       .  S
C1938      C1939   1.418       .  A
C1939      H1946   1.082       .  S
C1939      C1940   1.396       .  A
C1940      S1942   1.807       .  S
S1941      H1944   1.394       .  S
S1942      H1943   1.407       .  S
C1947      C2213   1.585       .  S
C1948      C2141   1.573       .  S
C1948      C2153   1.595       .  S
C1948      C2168   1.565       .  S
C1948      C2216   1.577       .  S
C1949      C2096   1.574       .  S
C1949      C2105   1.547       .  S
C1949      C2117   1.583       .  S
C1949      C2132   1.604       .  S
C1950      C2060   1.572       .  S
C1950      C2069   1.598       .  S
C1950      C2084   1.588       .  S
C1950      C2129   1.564       .  S
C1951      N1969   1.350       .  A
C1951      C1988   1.466       .  S
C1951      C2204   1.487       .  S
N1952      N1969   1.325       .  A
N1952      N1974   1.319       .  A
C1953      N1978   1.339       .  A
C1953      C1991   1.457       .  S
C1953      H1998   1.081       .  S
H1954      C1995   1.081       .  S
C1955      N1979   1.341       .  A
C1955      H1984   1.082       .  S
Co1956     N1964   2.081       .  S
Co1956     N1972   2.097       .  S
N1957      C1995   1.339       .  A
N1957      N1964   1.320       .  A
N1957     Co1958   2.071       .  S
Co1958     N1961   2.104       .  S
Co1958     N1978   2.088       .  S
C1959      C2034   1.479       .  S
N1960      N1967   1.319       .  A
N1960      N1990   1.324       .  A
N1960     Co1993   2.078       .  S
N1961      N1997   1.329       .  A
N1962      C1991   1.355       .  A
N1962      N1972   1.327       .  A
H1963      C1988   1.081   1_455  S
N1964      N1985   1.320       .  A
N1965      N1983   1.317       .  A
N1965      N1970   1.322       .  A
C1966      N1970   1.346       .  A
C1966      C1994   1.455       .  S
C1966      C2108   1.462       .  S
N1967      C1982   1.334       .  A
N1967     Co1989   2.067       .  S
C1968      N1996   1.344       .  A
C1968      H2002   1.082       .  S
C1971      N1992   1.352       .  A
C1971      C2040   1.482       .  S
N1972      N1978   1.321       .  A
N1973      C1999   1.334       .  A
N1973      N1975   1.318       .  A
N1973     Co1989   2.072       .  S
N1974      C1988   1.341       .  A
N1975      N2003   1.322       .  A
N1975     Co1993   2.075       .  S
H1977      C1994   1.081       .  S
N1979     Co1993   2.087       .  S
N1980      N1992   1.329       .  A
C1981      N1985   1.347       .  A
C1981      C1995   1.461       .  S
C1981      C2093   1.473       .  S
C1982      C2001   1.450       .  S
C1982      H1986   1.081       .  S
N1983      C1994   1.336       .  A
C1987      N2003   1.349       .  A
C1987      C1999   1.466       .  S
C1987      C2189   1.482       .  S
N1990      C2001   1.349       .  A
C1991      C2180   1.474       .  S
C2001      C2120   1.458       .  S
C2004      N2022   1.349       .  A
C2004      C2041   1.467       .  S
C2004      C2081   1.485       .  S
N2005      N2022   1.326       .  A
N2005      N2027   1.321       .  A
N2005     Co2042   2.091       .  S
C2006      N2031   1.347       .  A
C2006      C2044   1.463       .  S
C2006      H2051   1.081   1_565  S
H2007      C2048   1.082       .  S
C2008      N2032   1.336       .  A
C2008      C2012   1.447       .  S
C2008      H2037   1.082       .  S
Co2009     N2027   2.097       .  S
Co2009     N2017   2.094       .  S
Co2009     N2049   2.075       .  S
N2010      C2048   1.346       .  A
N2010     Co2011   2.095       .  S
Co2011     N2014   2.102       .  S
Co2011     N2018   2.071       .  S
C2012      N2050   1.355       .  A
C2012      C2057   1.468       .  S
N2013      N2020   1.317       .  A
N2013      N2043   1.320       .  A
N2014      N2032   1.320       .  A
N2014      N2050   1.328       .  A
N2015      C2044   1.352       .  A
N2015      N2025   1.326       .  A
H2016      C2041   1.082       .  S
N2017      N2038   1.326       .  A
N2018      N2036   1.320       .  A
N2018      N2023   1.320       .  A
C2019      N2023   1.344       .  A
C2019      C2047   1.454       .  S
C2019      C2144   1.455       .  S
N2020      C2035   1.343       .  A
C2021      N2049   1.337       .  A
C2021      C2024   1.452       .  S
C2021      H2055   1.082       .  S
C2024      N2045   1.358       .  A
C2024      C2156   1.483       .  S
N2025      N2031   1.321       .  A
N2026      C2052   1.349       .  A
N2026     Co2042   2.112       .  S
N2027      C2041   1.343       .  A
N2028      N2056   1.325       .  A
N2028     Co2046   2.084       .  S
H2029      C2052   1.082       .  S
H2030      C2047   1.082       .  S
N2032     Co2046   2.069       .  S
N2033      N2045   1.329       .  A
N2033      N2049   1.321       .  A
N2033     Co2042   2.108       .  S
C2035      C2054   1.468       .  S
C2035      H2039   1.081       .  S
N2036      C2047   1.339       .  A
N2036     Co2046   2.069       .  S
C2040      C2052   1.470       .  S
N2043      C2054   1.344       .  A
C2044      C2072   1.483       .  S
C2054      C2165   1.483       .  S
C2057      C2058   1.398       .  A
C2057      C2062   1.403       .  A
C2058      H2067   1.084       .  S
C2058      C2059   1.403       .  A
C2059      C2060   1.434       .  A
C2059      S2063   1.805       .  S
C2060      C2061   1.421       .  A
C2061      H2068   1.073       .  S
C2061      C2062   1.399       .  A
C2062      S2064   1.805       .  S
S2063      H2066   1.400       .  S
S2064      H2065   1.405       .  S
C2069      C2070   1.419       .  A
C2069      C2074   1.450       .  A
C2070      H2079   1.079       .  S
C2070      C2071   1.411       .  A
C2071      C2072   1.410       .  A
C2071      S2075   1.804       .  S
C2072      C2073   1.388       .  A
C2073      H2080   1.084       .  S
C2073      C2074   1.400       .  A
C2074      S2076   1.816       .  S
S2075      H2078   1.405       .  S
S2076      H2077   1.407       .  S
C2081      C2082   1.392       .  A
C2081      C2086   1.408       .  A
C2082      H2091   1.082       .  S
C2082      C2083   1.403       .  A
C2083      C2084   1.442       .  A
C2083      S2087   1.805       .  S
C2084      C2085   1.421       .  A
C2085      H2092   1.075       .  S
C2085      C2086   1.405       .  A
C2086      S2088   1.803       .  S
S2087      H2090   1.407       .  S
C2093      C2094   1.396       .  A
C2093      C2098   1.407       .  A
C2094      H2103   1.083       .  S
C2094      C2095   1.400       .  A
C2095      C2096   1.439       .  A
C2095      S2099   1.813       .  S
C2096      C2097   1.423       .  A
C2097      H2104   1.084       .  S
C2097      C2098   1.393       .  A
C2098      S2100   1.801       .  S
S2099      H2102   1.407       .  S
S2100      H2101   1.407       .  S
C2105      C2106   1.420       .  A
C2105      C2110   1.432       .  A
C2106      H2115   1.083       .  S
C2106      C2107   1.387       .  A
C2107      C2108   1.402       .  A
C2107      S2111   1.803       .  S
C2108      C2109   1.397       .  A
C2109      H2116   1.083       .  S
C2109      C2110   1.403       .  A
C2110      S2112   1.811       .  S
S2111      H2114   1.408       .  S
S2112      H2113   1.406       .  S
C2117      C2118   1.415       .  A
C2117      C2122   1.444       .  A
C2118      H2127   1.048       .  S
C2118      C2119   1.391       .  A
C2119      C2120   1.394       .  A
C2119      S2123   1.806       .  S
C2120      C2121   1.394       .  A
C2121      H2128   1.085       .  S
C2121      C2122   1.399       .  A
C2122      S2124   1.811       .  S
S2123      H2126   1.405       .  S
S2124      H2125   1.401       .  S
C2129      C2130   1.413       .  A
C2129      C2134   1.430       .  A
C2130      H2139   1.083       .  S
C2130      C2131   1.398       .  A
C2131      C2132   1.436       .  A
C2131      S2135   1.823       .  S
C2132      C2133   1.419       .  A
C2133      H2140   1.071       .  S
C2133      C2134   1.395       .  A
C2134      S2136   1.811       .  S
S2135      H2138   1.408       .  S
S2136      H2137   1.408       .  S
C2141      C2142   1.420       .  A
C2141      C2146   1.443       .  A
C2142      H2151   1.074       .  S
C2142      C2143   1.395       .  A
C2143      C2144   1.402       .  A
C2143      S2147   1.807       .  S
C2144      C2145   1.384       .  A
C2145      H2152   1.084       .  S
C2145      C2146   1.396       .  A
C2146      S2148   1.805       .  S
S2147      H2150   1.405       .  S
S2148      H2149   1.408       .  S
C2153      C2154   1.428       .  A
C2153      C2158   1.434       .  A
C2154      H2163   1.079       .  S
C2154      C2155   1.400       .  A
C2155      C2156   1.398       .  A
C2155      S2159   1.799       .  S
C2156      C2157   1.399       .  A
C2157      H2164   1.082       .  S
C2157      C2158   1.407       .  A
C2158      S2160   1.804       .  S
S2159      H2162   1.407       .  S
S2160      H2161   1.407       .  S
C2165      C2166   1.397       .  A
C2165      C2170   1.411       .  A
C2166      H2175   1.082       .  S
C2166      C2167   1.401       .  A
C2167      C2168   1.442       .  A
C2167      S2171   1.810       .  S
C2168      C2169   1.419       .  A
C2169      H2176   1.082       .  S
C2169      C2170   1.395       .  A
C2170      S2172   1.801       .  S
S2171      H2174   1.395       .  S
S2172      H2173   1.408       .  S
C2177      C2182   1.448       .  A
C2178      H2187   1.083       .  S
C2178      C2179   1.401       .  A
C2179      S2183   1.804       .  S
C2180      C2181   1.392       .  A
C2181      H2188   1.086       .  S
C2181      C2182   1.401       .  A
C2182      S2184   1.805       .  S
S2183      H2186   1.406       .  S
S2184      H2185   1.400       .  S
C2189      C2190   1.401       .  A
C2190      H2199   1.084       .  S
C2190      C2191   1.402       .  A
C2191      C2192   1.438       .  A
C2191      S2195   1.810       .  S
C2193      H2200   1.072       .  S
C2193      C2194   1.390       .  A
C2194      S2196   1.796       .  S
S2195      H2198   1.397       .  S
S2196      H2197   1.408       .  S
C2201      C2202   1.419       .  A
C2202      H2211   1.078       .  S
C2202      C2203   1.403       .  A
C2203      C2204   1.412       .  A
C2203      S2207   1.803       .  S
C2204      C2205   1.395       .  A
C2206      S2208   1.809       .  S
S2207      H2210   1.407       .  S
S2208      H2209   1.399       .  S
C2213      C2214   1.415       .  A
C2213      C2218   1.424       .  A
C2214      H2223   1.077       .  S
C2214      C2215   1.395       .  A
C2215      C2216   1.436       .  A
C2215      S2219   1.809       .  S
C2216      C2217   1.418       .  A
C2217      H2224   1.082       .  S
C2217      C2218   1.396       .  A
C2218      S2220   1.807       .  S
S2219      H2222   1.394       .  S
S2220      H2221   1.407       .  S
