geometry optimzed in LAMMPS
_audit_creation_date              2020-11-30 
_audit_creation_method            'lammps2cif' 
_symmetry_space_group_name_H-M    'P1' 
_symmetry_Int_Tables_number       1 
_symmetry_cell_setting            triclinic 
loop_ 
_symmetry_equiv_pos_as_xyz 
  x,y,z 
_cell_length_a                    40.98569862 
_cell_length_b                    40.79465557995557 
_cell_length_c                    77.46948155913417 
_cell_angle_alpha                 90.00209976389567 
_cell_angle_beta                  89.95905786840919 
_cell_angle_gamma                 90.04330102129472 
loop_ 
_atom_site_label 
_atom_site_type_symbol 
_atom_site_fract_x 
_atom_site_fract_y 
_atom_site_fract_z 
_atom_site_charge 
C1          C  0.72807707  0.03607371  0.37521751     0.82200
N2          N  0.72715668  0.01213594  0.36305212    -0.76100
C3          C  0.75026757  0.98833203  0.36293001     0.84700
N4          N  0.77428811  0.98846436  0.37496142    -0.76000
C5          C  0.77525567  0.01235824  0.38712625     0.84800
N6          N  0.75214168  0.03618837  0.38726279    -0.77800
O7          O  0.77764035  0.78156127  0.25988805    -0.72400
O8          O  0.77472591  0.71542796  0.22480290    -0.72500
O9          O  0.77591615  0.78192332  0.22496797    -0.72500
O10         O  0.77649776  0.71507575  0.25972161    -0.72600
O11         O  0.72202653  0.71596137  0.26049174    -0.72500
O12         O  0.72144575  0.78284084  0.22572626    -0.72500
O13         O  0.72025088  0.71633060  0.22557177    -0.72500
O14         O  0.72316344  0.78242733  0.26064218    -0.72500
Ni15       Ni  0.77815290  0.74846207  0.24231389     1.25400
Ni16       Ni  0.71976443  0.74942211  0.24313432     1.25400
C17         C  0.75085050  0.79286500  0.26593184     0.89700
C18         C  0.74701947  0.70498756  0.21953135     0.89700
C19         C  0.74860536  0.79339608  0.21973826     0.89700
C20         C  0.74935689  0.70454517  0.26573550     0.89900
C21         C  0.77125921  0.46017060  0.37414566     0.82200
N22         N  0.77218694  0.48480550  0.36237745    -0.76100
C23         C  0.74837471  0.50790456  0.36224001     0.84700
N24         N  0.72364987  0.50635166  0.37386758    -0.76000
C25         C  0.72270631  0.48170969  0.38562182     0.84800
N26         N  0.74652722  0.45863565  0.38577352    -0.77800
C27         C  0.72573092  0.46174038  0.11005028     0.82200
N28         N  0.75061748  0.46125530  0.09847546    -0.76100
C29         C  0.77425285  0.48455155  0.09915864     0.84700
N30         N  0.77295654  0.50832687  0.11138367    -0.76000
C31         C  0.74810032  0.50880893  0.12295123     0.84800
N32         N  0.72448254  0.48552283  0.12228388    -0.77800
C33         C  0.77172282  0.03671434  0.11029384     0.82200
N34         N  0.77251174  0.01291303  0.12253265    -0.76100
C35         C  0.74902733  0.98945071  0.12286933     0.84700
N36         N  0.72476907  0.98979360  0.11096202    -0.76000
C37         C  0.72394697  0.01358175  0.09872758     0.84800
N38         N  0.74743987  0.03704309  0.09838503    -0.77800
C39         C  0.52395131  0.00024997  0.00499568     0.04300
C40         C  0.49972393  0.02470712  0.00485154     0.04200
C41         C  0.47375372  0.02258768  0.99317218    -0.16300
C42         C  0.47165181  0.99624898  0.98164037     0.04300
C43         C  0.49582040  0.97171817  0.98180766     0.04200
C44         C  0.52184632  0.97388020  0.99347087    -0.16300
H45         H  0.54048660  0.95501430  0.99357808     0.06300
H46         H  0.45512605  0.04146845  0.99306584     0.06300
C47         C  0.22558304  0.96259196  0.87529091     0.82200
N48         N  0.22553969  0.98566550  0.86267150    -0.76100
C49         C  0.24885461  0.00928750  0.86245723     0.84700
N50         N  0.27218255  0.00986032  0.87486730    -0.76000
C51         C  0.27223551  0.98681591  0.88749170     0.84800
N52         N  0.24893084  0.96316381  0.88770824    -0.77800
C53         C  0.27378251  0.53485318  0.87631070     0.82200
N54         N  0.27476682  0.51122179  0.86399635    -0.76100
C55         C  0.25106966  0.48802492  0.86336429     0.84700
N56         N  0.22639491  0.48845536  0.87503839    -0.76000
C57         C  0.22538510  0.51209038  0.88734484     0.84800
N58         N  0.24908798  0.53530274  0.88799127    -0.77800
O59         O  0.22471028  0.21603299  0.72554199    -0.72400
O60         O  0.22532012  0.28279079  0.76032262    -0.72500
O61         O  0.22446125  0.28245992  0.72542204    -0.72500
O62         O  0.22541137  0.21633771  0.76045272    -0.72600
O63         O  0.27991193  0.21645199  0.76013025    -0.72500
O64         O  0.27896151  0.28271469  0.72504180    -0.72500
O65         O  0.27982230  0.28294867  0.75996237    -0.72500
O66         O  0.27921237  0.21626182  0.72520447    -0.72500
Ni67       Ni  0.22302122  0.24939933  0.74295190     1.25400
Ni68       Ni  0.28144460  0.24960081  0.74257525     1.25400
C69         C  0.25188903  0.20521112  0.71974192     0.89700
C70         C  0.25268014  0.29385030  0.76574802     0.89700
C71         C  0.25152089  0.29344377  0.71955684     0.89700
C72         C  0.25277363  0.20548821  0.76594303     0.89900
C73         C  0.27259022  0.96083509  0.61085196     0.82200
N74         N  0.27468420  0.98515025  0.62276511    -0.76100
C75         C  0.25208136  0.00943477  0.62300847     0.84700
N76         N  0.22739127  0.00938902  0.61136414    -0.76000
C77         C  0.22526764  0.98510584  0.59946028     0.84800
N78         N  0.24787335  0.96081056  0.59919290    -0.77800
C79         C  0.22565972  0.53511082  0.60945774     0.82200
N80         N  0.24982773  0.53520180  0.59747242    -0.76100
C81         C  0.27281001  0.51127705  0.59760759     0.84700
N82         N  0.27161874  0.48727844  0.60971133    -0.76000
C83         C  0.24745719  0.48717314  0.62168582     0.84800
N84         N  0.22447087  0.51108988  0.62156386    -0.77800
C85         C  0.97193300  0.49610988  0.00386553     0.04300
C86         C  0.99596243  0.47144069  0.00375390     0.04200
C87         C  0.02154771  0.47294240  0.99177388    -0.16300
C88         C  0.02346364  0.49889512  0.97996291     0.04300
C89         C  0.99943039  0.52356505  0.98007523     0.04200
C90         C  0.97376080  0.52197216  0.99200074    -0.16300
H91         H  0.95529437  0.54100790  0.99212525     0.06300
H92         H  0.04011976  0.45400926  0.99172076     0.06300
O93         O  0.71651722  0.77783023  0.76043361    -0.72400
O94         O  0.78246057  0.77702353  0.72527365    -0.72500
O95         O  0.71626742  0.77802840  0.72547685    -0.72500
O96         O  0.78274981  0.77692392  0.76023282    -0.72600
O97         O  0.78197182  0.72218105  0.76018076    -0.72500
O98         O  0.71541505  0.72328657  0.72540312    -0.72500
O99         O  0.78160247  0.72228149  0.72522470    -0.72500
O100        O  0.71574964  0.72308653  0.76035408    -0.72500
Ni101      Ni  0.74952910  0.77941758  0.74286131     1.25400
Ni102      Ni  0.74865533  0.72074553  0.74279313     1.25400
C103        C  0.70526826  0.75056618  0.76606209     0.89700
C104        C  0.79283785  0.74949989  0.71954782     0.89700
C105        C  0.70493730  0.75085474  0.71979898     0.89700
C106        C  0.79331949  0.74939092  0.76581785     0.89900
C107        C  0.46355490  0.72404386  0.87560387     0.82200
N108        N  0.48716641  0.72373535  0.86330641    -0.76100
C109        C  0.51015718  0.74769539  0.86300883     0.84700
N110        N  0.50952725  0.77191315  0.87500975    -0.76000
C111        C  0.48591224  0.77221678  0.88729073     0.84800
N112        N  0.46293907  0.74827644  0.88759402    -0.77800
C113        C  0.03442632  0.77449045  0.87566897     0.82200
N114        N  0.03463433  0.75046240  0.88779113    -0.76100
C115        C  0.01130470  0.72683841  0.88759446     0.84700
N116        N  0.98781075  0.72722871  0.87526185    -0.76000
C117        C  0.98759205  0.75123164  0.86313650     0.84800
N118        N  0.01091769  0.77485957  0.86333554    -0.77800
C119        C  0.46349732  0.77266997  0.60996362     0.82200
N120        N  0.46347662  0.74851721  0.59790848    -0.76100
C121        C  0.48779855  0.72595623  0.59768407     0.84700
N122        N  0.51214296  0.72756302  0.60952884    -0.76000
C123        C  0.51219771  0.75171333  0.62158499     0.84800
N124        N  0.48785618  0.77425625  0.62180222    -0.77800
C125        C  0.03380505  0.72220668  0.60941708     0.82200
N126        N  0.03468218  0.74691119  0.59768899    -0.76100
C127        C  0.01157799  0.77070973  0.59803425     0.84700
N128        N  0.98760231  0.76980299  0.61011299    -0.76000
C129        C  0.98669280  0.74512426  0.62184848     0.84800
N130        N  0.00982124  0.72132457  0.62151086    -0.77800
C131        C  0.96262114  0.22519813  0.11086659     0.82200
N132        N  0.96169011  0.25011657  0.09926131    -0.76100
C133        C  0.98482385  0.27392747  0.09967251     0.84700
N134        N  0.00890188  0.27277816  0.11166483    -0.76000
C135        C  0.00985494  0.24788932  0.12326750     0.84800
N136        N  0.98670867  0.22408822  0.12287269    -0.77800
C137        C  0.53525509  0.27287210  0.11066620     0.82200
N138        N  0.53568900  0.24890947  0.09851159    -0.76100
C139        C  0.51239908  0.22525691  0.09859691     0.84700
N140        N  0.48867692  0.22557661  0.11080606    -0.76000
C141        C  0.48820922  0.24949351  0.12295908     0.84800
N142        N  0.51149868  0.27317833  0.12289489    -0.77800
O143        O  0.21619877  0.22255454  0.26065105    -0.72400
O144        O  0.28197985  0.22194188  0.22548058    -0.72500
O145        O  0.28236279  0.22249193  0.26044951    -0.72500
O146        O  0.21585973  0.22198569  0.22571623    -0.72600
O147        O  0.21592033  0.27673858  0.22547154    -0.72500
O148        O  0.28246537  0.27724183  0.26021184    -0.72500
O149        O  0.28205803  0.27669335  0.22523637    -0.72500
O150        O  0.21629385  0.27730802  0.26041258    -0.72500
Ni151      Ni  0.24910536  0.22027800  0.24308717     1.25400
Ni152      Ni  0.24919544  0.27896477  0.24282844     1.25400
C153        C  0.20541893  0.25003259  0.26620757     0.89700
C154        C  0.29274754  0.24921766  0.21962588     0.89700
C155        C  0.29331389  0.24994130  0.26596793     0.89700
C156        C  0.20499430  0.24927155  0.21996058     0.89900
C157        C  0.96238729  0.27238200  0.37481327     0.82200
N158        N  0.96206938  0.24853435  0.38703441    -0.76100
C159        C  0.98570404  0.22525148  0.38713216     0.84700
N160        N  0.00963341  0.22583643  0.37502871    -0.76000
C161        C  0.00995697  0.24965915  0.36281662     0.84800
N162        N  0.98633421  0.27294347  0.36270647    -0.77800
C163        C  0.53690812  0.22426320  0.37434257     0.82200
N164        N  0.53647066  0.24767833  0.38679899    -0.76100
C165        C  0.51274035  0.27087031  0.38680622     0.84700
N166        N  0.48946436  0.27063538  0.37436974    -0.76000
C167        C  0.48986168  0.24726949  0.36191431     0.84800
N168        N  0.51358028  0.22405069  0.36189950    -0.77800
C169        C  0.97492670  0.00081667  0.48120235     0.04300
C170        C  0.99923149  0.02525760  0.48135565     0.04200
C171        C  0.02492561  0.02331315  0.49323156    -0.16300
C172        C  0.02662902  0.99720009  0.50494103     0.04300
C173        C  0.00243280  0.97267206  0.50473092     0.04200
C174        C  0.97670093  0.97465079  0.49288080    -0.16300
H175        H  0.95802594  0.95579404  0.49274619     0.06300
H176        H  0.04358787  0.04218362  0.49338433     0.06300
C177        C  0.50057778  0.47079516  0.48119037     0.04300
C178        C  0.52525441  0.49482678  0.48071298     0.04200
C179        C  0.52385561  0.52166565  0.49199531    -0.16300
C180        C  0.49804296  0.52475452  0.50375821     0.04300
C181        C  0.47340959  0.50066419  0.50422677     0.04200
C182        C  0.47482287  0.47385792  0.49295315    -0.16300
H183        H  0.45581259  0.45534962  0.49332641     0.06300
H184        H  0.54286156  0.54017244  0.49161077     0.06300
C185        C  0.50899206  0.34267094  0.42341572     0.19000
C186        C  0.53621174  0.36250806  0.42670394    -0.10100
C187        C  0.53412957  0.38794837  0.43875914    -0.10900
C188        C  0.50480846  0.39369570  0.44756307     0.20600
C189        C  0.47762097  0.37378468  0.44432960    -0.13000
C190        C  0.47971088  0.34832083  0.43228211    -0.11300
C191        C  0.50257520  0.42026907  0.45972386     0.01500
C192        C  0.50125588  0.44299329  0.46965114    -0.31300
C193        C  0.51093603  0.31688927  0.41076550     0.02900
C194        C  0.51212294  0.29566325  0.39995030    -0.33000
H195        H  0.55895436  0.35840272  0.41990533     0.14000
H196        H  0.55530288  0.40318727  0.44116843     0.13800
H197        H  0.45482132  0.37803630  0.45104993     0.13700
H198        H  0.45849459  0.33317187  0.42981872     0.12700
C199        C  0.98875254  0.15244198  0.42314148     0.19000
C200        C  0.01813625  0.14711829  0.43193613    -0.10100
C201        C  0.02064318  0.12156118  0.44388824    -0.10900
C202        C  0.99377003  0.10121405  0.44709644     0.20600
C203        C  0.96435663  0.10654994  0.43832384    -0.13000
C204        C  0.96185140  0.13211471  0.42636260    -0.11300
C205        C  0.99638478  0.07480978  0.45932157     0.01500
C206        C  0.99810752  0.05245101  0.46944934    -0.31300
C207        C  0.98647007  0.17845395  0.41065593     0.02900
C208        C  0.98555564  0.20000942  0.40002567    -0.33000
H209        H  0.03910609  0.16264385  0.42951218     0.14000
H210        H  0.04350194  0.11762914  0.45058852     0.13800
H211        H  0.94342940  0.09094440  0.44071171     0.13700
H212        H  0.93903769  0.13596363  0.41960739     0.12700
C213        C  0.13302100  0.25056062  0.30234844     0.19000
C214        C  0.10117622  0.24226479  0.29741877    -0.10100
C215        C  0.07603690  0.24227387  0.30963785    -0.10900
C216        C  0.08263655  0.25058931  0.32683173     0.20600
C217        C  0.11447072  0.25892411  0.33175644    -0.13000
C218        C  0.13960995  0.25891505  0.31953757    -0.11300
C219        C  0.05681854  0.25045963  0.33942666     0.01500
C220        C  0.03532668  0.25021541  0.35005402    -0.31300
C221        C  0.15888900  0.25043926  0.28977940     0.02900
C222        C  0.18033835  0.25026639  0.27912547    -0.33000
H223        H  0.09581204  0.23577176  0.28416084     0.14000
H224        H  0.05150980  0.23577774  0.30569286     0.13800
H225        H  0.11984068  0.26538015  0.34501842     0.13700
H226        H  0.16414333  0.26537441  0.32348704     0.12700
C227        C  0.41732552  0.24822646  0.32586314     0.19000
C228        C  0.38572483  0.25683076  0.33109498    -0.10100
C229        C  0.36026655  0.25747165  0.31907613    -0.10900
C230        C  0.36629654  0.24952274  0.30177011     0.20600
C231        C  0.39791208  0.24100635  0.29653278    -0.13000
C232        C  0.42336624  0.24036402  0.30855010    -0.11300
C233        C  0.34011333  0.24996553  0.28938661     0.01500
C234        C  0.31852970  0.25008261  0.27881307    -0.31300
C235        C  0.44346225  0.24743863  0.33826910     0.02900
C236        C  0.46495558  0.24705232  0.34889184    -0.33000
H237        H  0.38077839  0.26298158  0.34444618     0.14000
H238        H  0.33592421  0.26410128  0.32327282     0.13800
H239        H  0.40285521  0.23482495  0.28318549     0.13700
H240        H  0.44770023  0.23370174  0.30435559     0.12700
C241        C  0.41513561  0.24907968  0.15874574     0.19000
C242        C  0.42139803  0.23968509  0.17581670    -0.10100
C243        C  0.39615706  0.23947548  0.18797432    -0.10900
C244        C  0.36452664  0.24864125  0.18311697     0.20600
C245        C  0.35821336  0.25787905  0.16602119    -0.13000
C246        C  0.38346699  0.25808779  0.15385748    -0.11300
C247        C  0.33871038  0.24879861  0.19572711     0.01500
C248        C  0.31752125  0.24898668  0.20653237    -0.31300
C249        C  0.44118547  0.24954817  0.14627538     0.02900
C250        C  0.46286611  0.24978683  0.13574901    -0.33000
H251        H  0.44577628  0.23262702  0.17973202     0.14000
H252        H  0.40130945  0.23228156  0.20115394     0.13800
H253        H  0.33384598  0.26500304  0.16211996     0.13700
H254        H  0.37834158  0.26534667  0.14068466     0.12700
C255        C  0.13279733  0.24811642  0.18374588     0.19000
C256        C  0.10436245  0.26647313  0.18642388    -0.10100
C257        C  0.07932653  0.26589416  0.17416928    -0.10900
C258        C  0.08260160  0.24694304  0.15918384     0.20600
C259        C  0.11103655  0.22857598  0.15650226    -0.13000
C260        C  0.13608181  0.22915515  0.16876138    -0.11300
C261        C  0.05689435  0.24658095  0.14653400     0.01500
C262        C  0.03535522  0.24683263  0.13594219    -0.31300
C263        C  0.15850384  0.24866110  0.19639220     0.02900
C264        C  0.17985535  0.24903418  0.20708750    -0.33000
H265        H  0.10155805  0.28120794  0.19796621     0.14000
H266        H  0.05746589  0.28021996  0.17636351     0.13800
H267        H  0.11384605  0.21386792  0.14495130     0.13700
H268        H  0.15795914  0.21485710  0.16656428     0.12700
C269        C  0.00783852  0.89638265  0.53881611     0.19000
C270        C  0.02674647  0.89984825  0.55377590    -0.10100
C271        C  0.02848947  0.87419787  0.56573552    -0.10900
C272        C  0.01137827  0.84497650  0.56275916     0.20600
C273        C  0.99270951  0.84144805  0.54772943    -0.13000
C274        C  0.99094196  0.86708624  0.53578777    -0.11300
C275        C  0.01242613  0.81881515  0.57522058     0.01500
C276        C  0.01241967  0.79683210  0.58562691    -0.31300
C277        C  0.00551743  0.92294429  0.52666031     0.02900
C278        C  0.00370418  0.94538140  0.51658059    -0.33000
H279        H  0.03996542  0.92239031  0.55622470     0.14000
H280        H  0.04298723  0.87720499  0.57731711     0.13800
H281        H  0.97937051  0.81897756  0.54530214     0.13700
H282        H  0.97628455  0.86414121  0.52425782     0.12700
C283        C  0.49338999  0.60198865  0.53736545     0.19000
C284        C  0.46709083  0.60355540  0.54891581    -0.10100
C285        C  0.46525741  0.62901109  0.56099454    -0.10900
C286        C  0.48971074  0.65302943  0.56157464     0.20600
C287        C  0.51586580  0.65158178  0.54993680    -0.13000
C288        C  0.51770409  0.62613230  0.53786618    -0.11300
C289        C  0.48831362  0.67885508  0.57424876     0.01500
C290        C  0.48781420  0.70039337  0.58492341    -0.31300
C291        C  0.49563915  0.57537649  0.52519702     0.02900
C292        C  0.49717495  0.55262730  0.51527472    -0.33000
H293        H  0.44814243  0.58502546  0.54864461     0.14000
H294        H  0.44492476  0.62985429  0.56992776     0.13800
H295        H  0.53491924  0.66999488  0.55026769     0.13700
H296        H  0.53814878  0.62517133  0.52900852     0.12700
C297        C  0.91435055  0.74540228  0.65810576     0.19000
C298        C  0.91445316  0.72318100  0.67189869    -0.10100
C299        C  0.88959665  0.72415101  0.68428301    -0.10900
C300        C  0.86451683  0.74735128  0.68293664     0.20600
C301        C  0.86440511  0.76955373  0.66913623    -0.13000
C302        C  0.88925841  0.76858404  0.65675377    -0.11300
C303        C  0.83899401  0.74840117  0.69572371     0.01500
C304        C  0.81778900  0.74908812  0.70652794    -0.31300
C305        C  0.94001130  0.74457578  0.64539365     0.02900
C306        C  0.96139991  0.74443785  0.63468683    -0.33000
H307        H  0.93373496  0.70516739  0.67308673     0.14000
H308        H  0.88994545  0.70686907  0.69489863     0.13800
H309        H  0.84515437  0.78760426  0.66796187     0.13700
H310        H  0.88893714  0.78590313  0.64615437     0.12700
C311        C  0.91603746  0.75071281  0.82651581     0.19000
C312        C  0.92315625  0.75666896  0.80909901    -0.10100
C313        C  0.89818125  0.75609269  0.79678941    -0.10900
C314        C  0.86597822  0.74954812  0.80184392     0.20600
C315        C  0.85889010  0.74355139  0.81925473    -0.13000
C316        C  0.88385115  0.74412657  0.83155709    -0.11300
C317        C  0.84021068  0.74915501  0.78920638     0.01500
C318        C  0.81866691  0.74907369  0.77860243    -0.31300
C319        C  0.94165801  0.75128525  0.83922794     0.02900
C320        C  0.96277009  0.75147735  0.85006644    -0.33000
H321        H  0.94795649  0.76176771  0.80504810     0.14000
H322        H  0.90395217  0.76077709  0.78336532     0.13800
H323        H  0.83409166  0.73847699  0.82331573     0.13700
H324        H  0.87806600  0.73946495  0.84498172     0.12700
C325        C  0.63274588  0.74973833  0.80220060     0.19000
C326        C  0.63456303  0.76953753  0.81694750    -0.10100
C327        C  0.60947045  0.76880856  0.82919378    -0.10900
C328        C  0.58243481  0.74827690  0.82675295     0.20600
C329        C  0.58060208  0.72847852  0.81200466    -0.13000
C330        C  0.60569995  0.72920804  0.79975523    -0.11300
C331        C  0.55663511  0.74759442  0.83937426     0.01500
C332        C  0.53525904  0.74739901  0.85007861    -0.31300
C333        C  0.65860387  0.75043593  0.78960376     0.02900
C334        C  0.68009771  0.75074138  0.77895917    -0.33000
H335        H  0.65534947  0.78550205  0.81897559     0.14000
H336        H  0.61114104  0.78422389  0.84054691     0.13800
H337        H  0.55981328  0.71251316  0.80998180     0.13700
H338        H  0.60403221  0.71379141  0.78840277     0.12700
C339        C  0.58436103  0.75383525  0.65789624     0.19000
C340        C  0.61710247  0.75016272  0.65303945    -0.10100
C341        C  0.64158817  0.74962960  0.66561665    -0.10900
C342        C  0.63346895  0.75275608  0.68311376     0.20600
C343        C  0.60073857  0.75655434  0.68796886    -0.13000
C344        C  0.57625107  0.75708889  0.67539060    -0.11300
C345        C  0.65868118  0.75197301  0.69606062     0.01500
C346        C  0.67983120  0.75135205  0.70688116    -0.31300
C347        C  0.55908154  0.75376055  0.64497616     0.02900
C348        C  0.53776733  0.75312317  0.63424353    -0.33000
H349        H  0.62366946  0.74758334  0.63956077     0.14000
H350        H  0.66680685  0.74668957  0.66170805     0.13800
H351        H  0.59416202  0.75900321  0.70145351     0.13700
H352        H  0.55102031  0.75990053  0.67930417     0.12700
C353        C  0.98684097  0.34760020  0.06408609     0.19000
C354        C  0.95945139  0.36685462  0.06031170    -0.10100
C355        C  0.96155396  0.39170445  0.04790326    -0.10900
C356        C  0.99105333  0.39740316  0.03923555     0.20600
C357        C  0.01843454  0.37820288  0.04304657    -0.13000
C358        C  0.01632887  0.35336255  0.05543606    -0.11300
C359        C  0.99327328  0.42298538  0.02649271     0.01500
C360        C  0.99488160  0.44472332  0.01597850    -0.31300
C361        C  0.98483287  0.32186238  0.07676110     0.02900
C362        C  0.98423680  0.30004757  0.08726117    -0.33000
H363        H  0.93652897  0.36263207  0.06692373     0.14000
H364        H  0.94022524  0.40640904  0.04505279     0.13800
H365        H  0.04136687  0.38242055  0.03644206     0.13700
H366        H  0.03765998  0.33863962  0.05825825     0.12700
C367        C  0.00572341  0.60035387  0.94629724     0.19000
C368        C  0.01607905  0.59472944  0.92931227    -0.10100
C369        C  0.01829194  0.62081199  0.91764670    -0.10900
C370        C  0.01009201  0.65263006  0.92290185     0.20600
C371        C  0.99994964  0.65828867  0.93992048    -0.13000
C372        C  0.99779729  0.63221017  0.95159532    -0.11300
C373        C  0.01129881  0.67926851  0.91072357     0.01500
C374        C  0.01160560  0.70121732  0.90029675    -0.31300
C375        C  0.00302551  0.57344780  0.95823651     0.02900
C376        C  0.00099719  0.55083438  0.96820630    -0.33000
H377        H  0.02217186  0.57019375  0.92505990     0.14000
H378        H  0.02610393  0.61613611  0.90451139     0.13800
H379        H  0.99349628  0.68277417  0.94411773     0.13700
H380        H  0.98977483  0.63684094  0.96469917     0.12700
C381        C  0.10513778  0.65247621  0.60887101     0.19000
C382        C  0.09736161  0.61915460  0.60732608    -0.10100
C383        C  0.12215415  0.59561136  0.60736087    -0.10900
C384        C  0.15482887  0.60527907  0.60893880     0.20600
C385        C  0.16262287  0.63860393  0.61044115    -0.13000
C386        C  0.13782590  0.66215200  0.61040600    -0.11300
C387        C  0.18025916  0.58097488  0.60908781     0.01500
C388        C  0.20118575  0.56023039  0.60924840    -0.31300
C389        C  0.07962588  0.67671691  0.60897737     0.02900
C390        C  0.05851257  0.69728622  0.60915704    -0.33000
H391        H  0.07217852  0.61139195  0.60613397     0.14000
H392        H  0.11585908  0.56990690  0.60619325     0.13800
H393        H  0.18780483  0.64635325  0.61166970     0.13700
H394        H  0.14411604  0.68785082  0.61160983     0.12700
C395        C  0.39778544  0.50695619  0.53839789     0.19000
C396        C  0.36622892  0.49778190  0.53340558    -0.10100
C397        C  0.34057572  0.49927383  0.54528619    -0.10900
C398        C  0.34640230  0.50995010  0.56219491     0.20600
C399        C  0.37793860  0.51927956  0.56715703    -0.13000
C400        C  0.40358822  0.51779211  0.55527654    -0.11300
C401        C  0.32015959  0.51091012  0.57451451     0.01500
C402        C  0.29840359  0.51130777  0.58498016    -0.31300
C403        C  0.42425258  0.50489970  0.52627430     0.02900
C404        C  0.44654824  0.50296404  0.51619267    -0.33000
H405        H  0.36150870  0.48935209  0.52038101     0.14000
H406        H  0.31628559  0.49197394  0.54132517     0.13800
H407        H  0.38270557  0.52753690  0.58020652     0.13700
H408        H  0.42791796  0.52491815  0.55926122     0.12700
C409        C  0.39090534  0.84112785  0.61054291     0.19000
C410        C  0.39508608  0.87007917  0.62002009    -0.10100
C411        C  0.37065511  0.89399712  0.62005736    -0.10900
C412        C  0.34191531  0.88909324  0.61061782     0.20600
C413        C  0.33766002  0.86008820  0.60118643    -0.13000
C414        C  0.36210754  0.83615360  0.60114917    -0.11300
C415        C  0.31698735  0.91394383  0.61054365     0.01500
C416        C  0.29653392  0.93517744  0.61060463    -0.31300
C417        C  0.41627206  0.81671780  0.61036147     0.02900
C418        C  0.43776049  0.79653377  0.61019204    -0.33000
H419        H  0.41724621  0.87419608  0.62732485     0.14000
H420        H  0.37420786  0.91632829  0.62739275     0.13800
H421        H  0.31553879  0.85603664  0.59383886     0.13700
H422        H  0.35861360  0.81386612  0.59377046     0.12700
C423        C  0.10035274  0.99217056  0.54031912     0.19000
C424        C  0.11385035  0.96164184  0.54451305    -0.10100
C425        C  0.13900857  0.95959724  0.55666035    -0.10900
C426        C  0.15070553  0.98806545  0.56467517     0.20600
C427        C  0.13698570  0.01854093  0.56059299    -0.13000
C428        C  0.11186725  0.02058890  0.54843880    -0.11300
C429        C  0.17697836  0.98614256  0.57694171     0.01500
C430        C  0.19909016  0.98523532  0.58717947    -0.31300
C431        C  0.07478132  0.99436950  0.52766846     0.02900
C432        C  0.05315126  0.99601770  0.51717417    -0.33000
H433        H  0.10502320  0.93949867  0.53835527     0.14000
H434        H  0.14941037  0.93590378  0.55974316     0.13800
H435        H  0.14581142  0.04069791  0.56673455     0.13700
H436        H  0.10153077  0.04429788  0.54532469     0.12700
C437        C  0.24692271  0.41475417  0.65794397     0.19000
C438        C  0.22165150  0.41185086  0.67003897    -0.10100
C439        C  0.22265707  0.38707320  0.68251016    -0.10900
C440        C  0.24893632  0.36512521  0.68292318     0.20600
C441        C  0.27414913  0.36799540  0.67080330    -0.13000
C442        C  0.27314394  0.39275560  0.65834037    -0.11300
C443        C  0.25009473  0.33972754  0.69578514     0.01500
C444        C  0.25098837  0.31849920  0.70658949    -0.31300
C445        C  0.24618946  0.44040865  0.64521320     0.02900
C446        C  0.24636531  0.46182920  0.63450229    -0.33000
H447        H  0.20127189  0.42874846  0.66985147     0.14000
H448        H  0.20303002  0.38506223  0.69182678     0.13800
H449        H  0.29457386  0.35115355  0.67100990     0.13700
H450        H  0.29281702  0.39480072  0.64905314     0.12700
C451        C  0.25276956  0.13274427  0.68352691     0.19000
C452        C  0.27800512  0.10958917  0.68368314    -0.10100
C453        C  0.27864290  0.08451275  0.67137639    -0.10900
C454        C  0.25404715  0.08251258  0.65887215     0.20600
C455        C  0.22882351  0.10567756  0.65871694    -0.13000
C456        C  0.22818586  0.13074612  0.67102012    -0.11300
C457        C  0.25446685  0.05660551  0.64628029     0.01500
C458        C  0.25394669  0.03498457  0.63568496    -0.31300
C459        C  0.25210588  0.15850129  0.69619620     0.02900
C460        C  0.25178974  0.17995748  0.70688260    -0.33000
H461        H  0.29712590  0.11091409  0.69330791     0.14000
H462        H  0.29823260  0.06670024  0.67162354     0.13800
H463        H  0.20966318  0.10432245  0.64911510     0.13700
H464        H  0.20855775  0.14851838  0.67079151     0.12700
C465        C  0.39348659  0.65308515  0.87673834     0.19000
C466        C  0.36107149  0.66150739  0.87312735    -0.10100
C467        C  0.33675945  0.63745313  0.87334950    -0.10900
C468        C  0.34476293  0.60488394  0.87719192     0.20600
C469        C  0.37715925  0.59647075  0.88087199    -0.13000
C470        C  0.40148201  0.62053558  0.88064980    -0.11300
C471        C  0.31979125  0.58009933  0.87716869     0.01500
C472        C  0.29878330  0.55942895  0.87690722    -0.31300
C473        C  0.41849968  0.67782016  0.87633767     0.02900
C474        C  0.43921490  0.69878375  0.87595635    -0.33000
H475        H  0.35463043  0.68660751  0.87009362     0.14000
H476        H  0.31178710  0.64420901  0.87047342     0.13800
H477        H  0.38360705  0.57134746  0.88384692     0.13700
H478        H  0.42647482  0.61376947  0.88346704     0.12700
C479        C  0.09936715  0.50473786  0.94587051     0.19000
C480        C  0.12790492  0.48650676  0.94841835    -0.10100
C481        C  0.15368382  0.48897662  0.93665835    -0.10900
C482        C  0.15103916  0.50969492  0.92230533     0.20600
C483        C  0.12255517  0.52805632  0.91979425    -0.13000
C484        C  0.09677544  0.52559565  0.93156598    -0.11300
C485        C  0.17733588  0.51161706  0.91003750     0.01500
C486        C  0.19934091  0.51232066  0.89971758    -0.31300
C487        C  0.07277363  0.50201784  0.95791130     0.02900
C488        C  0.05042379  0.50011804  0.96798149    -0.33000
H489        H  0.13017471  0.47034007  0.95944688     0.14000
H490        H  0.17558568  0.47464250  0.93870756     0.13800
H491        H  0.12023601  0.54412273  0.90872762     0.13700
H492        H  0.07484139  0.53984038  0.92949711     0.12700
C493        C  0.25303117  0.36638704  0.80191827     0.19000
C494        C  0.23191942  0.36446344  0.81610700    -0.10100
C495        C  0.23179175  0.38935801  0.82850499    -0.10900
C496        C  0.25277483  0.41627844  0.82676092     0.20600
C497        C  0.27388186  0.41823260  0.81256295    -0.13000
C498        C  0.27400909  0.39332260  0.80015689    -0.11300
C499        C  0.25258515  0.44183065  0.83954467     0.01500
C500        C  0.25207403  0.46302412  0.85037124    -0.31300
C501        C  0.25309800  0.34074165  0.78918702     0.02900
C502        C  0.25294082  0.31922588  0.77853576    -0.33000
H503        H  0.21559195  0.34374813  0.81757975     0.14000
H504        H  0.21536987  0.38762425  0.83943272     0.13800
H505        H  0.29019546  0.43895957  0.81109382     0.13700
H506        H  0.29041624  0.39504887  0.78922270     0.12700
C507        C  0.15473428  0.89231572  0.87559835     0.19000
C508        C  0.15861376  0.86359504  0.88529666    -0.10100
C509        C  0.13408450  0.83973562  0.88534451    -0.10900
C510        C  0.10557271  0.84449978  0.87569675     0.20600
C511        C  0.10171826  0.87319946  0.86597541    -0.13000
C512        C  0.12624735  0.89705840  0.86592755    -0.11300
C513        C  0.08033100  0.81994968  0.87575734     0.01500
C514        C  0.05928960  0.79928021  0.87576564    -0.31300
C515        C  0.17991202  0.91692244  0.87558744     0.02900
C516        C  0.20086289  0.93767651  0.87551510    -0.33000
H517        H  0.18054679  0.85967364  0.89281456     0.14000
H518        H  0.13733007  0.81762381  0.89289499     0.13800
H519        H  0.07978600  0.87712351  0.85845721     0.13700
H520        H  0.12300284  0.91917147  0.85837712     0.12700
C521        C  0.25143341  0.13232529  0.80178040     0.19000
C522        C  0.23355846  0.10377970  0.79829780    -0.10100
C523        C  0.23270073  0.07830041  0.81037599    -0.10900
C524        C  0.24971708  0.08129207  0.82597721     0.20600
C525        C  0.26753900  0.10985373  0.82946026    -0.13000
C526        C  0.26839529  0.13531734  0.81739004    -0.11300
C527        C  0.24891763  0.05519560  0.83845826     0.01500
C528        C  0.24868476  0.03391284  0.84924559    -0.31300
C529        C  0.25239561  0.15848966  0.78934042     0.02900
C530        C  0.25291307  0.18018417  0.77878459    -0.33000
H531        H  0.22033671  0.10122920  0.78626598     0.14000
H532        H  0.21882015  0.05633081  0.80755978     0.13800
H533        H  0.28075774  0.11242136  0.84149189     0.13700
H534        H  0.28227092  0.15728497  0.82021606     0.12700
C535        C  0.48742158  0.84465621  0.92351171     0.19000
C536        C  0.51774549  0.85480827  0.92991395    -0.10100
C537        C  0.51947062  0.88007541  0.94206379    -0.10900
C538        C  0.49087268  0.89528055  0.94787000     0.20600
C539        C  0.46050728  0.88500008  0.94156179    -0.13000
C540        C  0.45878106  0.85972792  0.92939129    -0.11300
C541        C  0.49276358  0.92173986  0.96008117     0.01500
C542        C  0.49435010  0.94428830  0.97008678    -0.31300
C543        C  0.48587312  0.81902300  0.91079518     0.02900
C544        C  0.48549311  0.79764605  0.90006500    -0.33000
H545        H  0.54003045  0.84331328  0.92544904     0.14000
H546        H  0.54306627  0.88786246  0.94685450     0.13800
H547        H  0.43824739  0.89659272  0.94598806     0.13700
H548        H  0.43520583  0.85205856  0.92452280     0.12700
C549        C  0.50948400  0.15226384  0.06274640     0.19000
C550        C  0.47921598  0.13769281  0.05930182    -0.10100
C551        C  0.47697752  0.11208883  0.04737259    -0.10900
C552        C  0.50500283  0.10096771  0.03884622     0.20600
C553        C  0.53528270  0.11552333  0.04228099    -0.13000
C554        C  0.53752132  0.14114949  0.05421237    -0.11300
C555        C  0.50272600  0.07448725  0.02668150     0.01500
C556        C  0.50107608  0.05203006  0.01663182    -0.31300
C557        C  0.51168433  0.17839773  0.07514211     0.02900
C558        C  0.51259121  0.19999413  0.08573660    -0.33000
H559        H  0.45740212  0.14607519  0.06585751     0.14000
H560        H  0.45346406  0.10094338  0.04482528     0.13800
H561        H  0.55710572  0.10703038  0.03577226     0.13700
H562        H  0.56104909  0.15221682  0.05680786     0.12700
C563        C  0.34437314  0.98924632  0.92371133     0.19000
C564        C  0.34402283  0.01272065  0.93691658    -0.10100
C565        C  0.36961543  0.01406439  0.94883470    -0.10900
C566        C  0.39565990  0.99195640  0.94758243     0.20600
C567        C  0.39595912  0.96842750  0.93441159    -0.13000
C568        C  0.37036391  0.96706676  0.92250604    -0.11300
C569        C  0.42218630  0.99356559  0.95970131     0.01500
C570        C  0.44460227  0.99486493  0.96974042    -0.31300
C571        C  0.31837885  0.98819337  0.91124398     0.02900
C572        C  0.29706440  0.98742600  0.90053601    -0.33000
H573        H  0.32407680  0.03002772  0.93794997     0.14000
H574        H  0.36916764  0.03237517  0.95896243     0.13800
H575        H  0.41601866  0.95127498  0.93330203     0.13700
H576        H  0.37091143  0.94886043  0.91232826     0.12700
C577        C  0.89213141  0.15450353  0.10986169     0.19000
C578        C  0.90021366  0.12133772  0.11180914    -0.10100
C579        C  0.87568799  0.09746119  0.11170375    -0.10900
C580        C  0.84297722  0.10664338  0.10964978     0.20600
C581        C  0.83491261  0.13979626  0.10764609    -0.13000
C582        C  0.85943288  0.16366752  0.10775111    -0.11300
C583        C  0.81771157  0.08210037  0.10972780     0.01500
C584        C  0.79663844  0.06145701  0.10992547    -0.31300
C585        C  0.91728859  0.17915498  0.11014556     0.02900
C586        C  0.93809623  0.20006441  0.11045735    -0.33000
H587        H  0.92541122  0.11396804  0.11345436     0.14000
H588        H  0.88220189  0.07189937  0.11326988     0.13800
H589        H  0.80970654  0.14717987  0.10605494     0.13700
H590        H  0.85290365  0.18923689  0.10623866     0.12700
C591        C  0.59969589  0.00649599  0.03914026     0.19000
C592        C  0.62457674  0.98297434  0.03922734    -0.10100
C593        C  0.65003757  0.98527461  0.05117340    -0.10900
C594        C  0.65074899  0.01110742  0.06308700     0.20600
C595        C  0.62593099  0.03472811  0.06295763    -0.13000
C596        C  0.60044982  0.03242650  0.05100355    -0.11300
C597        C  0.67667816  0.01300211  0.07557653     0.01500
C598        C  0.69832940  0.01371476  0.08610174    -0.31300
C599        C  0.57332113  0.00388175  0.02696873     0.02900
C600        C  0.55103429  0.00186807  0.01687647    -0.33000
H601        H  0.62422205  0.96282845  0.03011687     0.14000
H602        H  0.66906991  0.96685337  0.05117316     0.13800
H603        H  0.62620758  0.05478071  0.07212486     0.13700
H604        H  0.58131108  0.05074201  0.05105187     0.12700
C605        C  0.60576850  0.34354584  0.10988806     0.19000
C606        C  0.60010947  0.37361622  0.10167287    -0.10100
C607        C  0.62450663  0.39762714  0.10137391    -0.10900
C608        C  0.65466601  0.39165389  0.10928185     0.20600
C609        C  0.66033233  0.36156170  0.11746016    -0.13000
C610        C  0.63594895  0.33756488  0.11775935    -0.11300
C611        C  0.67969236  0.41643820  0.10917613     0.01500
C612        C  0.70073904  0.43710383  0.10940476    -0.31300
C613        C  0.58068187  0.31882799  0.11024407     0.02900
C614        C  0.55985165  0.29794094  0.11051467    -0.33000
H615        H  0.57687072  0.37849818  0.09553546     0.14000
H616        H  0.61984462  0.42081964  0.09502734     0.13800
H617        H  0.68354378  0.35669239  0.12362962     0.13700
H618        H  0.64060103  0.31440229  0.12413821     0.12700
C619        C  0.84798101  0.48728486  0.06379718     0.19000
C620        C  0.84257614  0.50345430  0.04810295    -0.10100
C621        C  0.86759483  0.50568239  0.03587850    -0.10900
C622        C  0.89814697  0.49177282  0.03929855     0.20600
C623        C  0.90359331  0.47561783  0.05499958    -0.13000
C624        C  0.87855213  0.47337135  0.06722853    -0.11300
C625        C  0.92382208  0.49396428  0.02668088     0.01500
C626        C  0.94548267  0.49536929  0.01617471    -0.31300
C627        C  0.82221446  0.48529686  0.07638857     0.02900
C628        C  0.80037096  0.48444143  0.08681108    -0.33000
H629        H  0.81905421  0.51434774  0.04533032     0.14000
H630        H  0.86312966  0.51822377  0.02378229     0.13800
H631        H  0.92715175  0.46480851  0.05778035     0.13700
H632        H  0.88302182  0.46086325  0.07933334     0.12700
C633        C  0.84253228  0.39044354  0.37446959     0.19000
C634        C  0.83561019  0.35880100  0.38048605    -0.10100
C635        C  0.85997405  0.33481213  0.38051299    -0.10900
C636        C  0.89135794  0.34236880  0.37452625     0.20600
C637        C  0.89827899  0.37401095  0.36850859    -0.13000
C638        C  0.87391464  0.39800024  0.36848165    -0.11300
C639        C  0.91643394  0.31769826  0.37459183     0.01500
C640        C  0.93741559  0.29700837  0.37468880    -0.31300
C641        C  0.81744802  0.41510320  0.37439692     0.02900
C642        C  0.79639949  0.43572234  0.37428968    -0.33000
H643        H  0.81142362  0.35269252  0.38514002     0.14000
H644        H  0.85436193  0.31042388  0.38519528     0.13800
H645        H  0.92246382  0.38011782  0.36385209     0.13700
H646        H  0.87952432  0.42238721  0.36379692     0.12700
C647        C  0.59975936  0.48630317  0.44595251     0.19000
C648        C  0.59408691  0.47026697  0.43023663    -0.10100
C649        C  0.61906183  0.46787016  0.41798136    -0.10900
C650        C  0.64977015  0.48152050  0.42141011     0.20600
C651        C  0.65549741  0.49725338  0.43719416    -0.13000
C652        C  0.63055315  0.49963012  0.44944105    -0.11300
C653        C  0.67519733  0.48024025  0.40861988     0.01500
C654        C  0.69678170  0.48038724  0.39804816    -0.31300
C655        C  0.57389925  0.48955410  0.45838400     0.02900
C656        C  0.55201910  0.49231914  0.46867645    -0.33000
H657        H  0.57033259  0.45991369  0.42740592     0.14000
H658        H  0.61435792  0.45569201  0.40580563     0.13800
H659        H  0.67913647  0.50792937  0.43996187     0.13700
H660        H  0.63518415  0.51207493  0.46155013     0.12700
C661        C  0.74968426  0.91708309  0.15924403     0.19000
C662        C  0.72009621  0.90251612  0.16410402    -0.10100
C663        C  0.71974238  0.87732362  0.17635458    -0.10900
C664        C  0.74898100  0.86656339  0.18380138     0.20600
C665        C  0.77856904  0.88118104  0.17897214    -0.13000
C666        C  0.77892283  0.90638029  0.16671835    -0.11300
C667        C  0.74862933  0.84055372  0.19637194     0.01500
C668        C  0.74847985  0.81887451  0.20695912    -0.31300
C669        C  0.74999600  0.94284206  0.14653454     0.02900
C670        C  0.74980992  0.96423134  0.13578833    -0.33000
H671        H  0.69734324  0.91058962  0.15840750     0.14000
H672        H  0.69672248  0.86622393  0.17999646     0.13800
H673        H  0.80132338  0.87307633  0.18465414     0.13700
H674        H  0.80194326  0.91745733  0.16305804     0.12700
C675        C  0.74545410  0.63225773  0.18344260     0.19000
C676        C  0.71771418  0.61259634  0.18123756    -0.10100
C677        C  0.71787238  0.58728878  0.16904838    -0.10900
C678        C  0.74577517  0.58155280  0.15903362     0.20600
C679        C  0.77349657  0.60121475  0.16124895    -0.13000
C680        C  0.77333827  0.62650329  0.17342858    -0.11300
C681        C  0.74602871  0.55559181  0.14646369     0.01500
C682        C  0.74673832  0.53407973  0.13580595    -0.31300
C683        C  0.74545789  0.65818820  0.19602988     0.02900
C684        C  0.74597105  0.67975124  0.20666166    -0.33000
H685        H  0.69603537  0.61681237  0.18893166     0.14000
H686        H  0.69630328  0.57222833  0.16743618     0.13800
H687        H  0.79519656  0.59699186  0.15357187     0.13700
H688        H  0.79492840  0.64153278  0.17504598     0.12700
C689        C  0.74969617  0.63198120  0.30199885     0.19000
C690        C  0.72023558  0.61749937  0.30713241    -0.10100
C691        C  0.72021620  0.59241089  0.31944090    -0.10900
C692        C  0.74966014  0.58167462  0.32667047     0.20600
C693        C  0.77912494  0.59616803  0.32154936    -0.13000
C694        C  0.77914441  0.62126400  0.30923789    -0.11300
C695        C  0.74960393  0.55573435  0.33927185     0.01500
C696        C  0.74924013  0.53391694  0.34977186    -0.31300
C697        C  0.74969223  0.65774635  0.28929341     0.02900
C698        C  0.74957114  0.67922028  0.27859388    -0.33000
H699        H  0.69732419  0.62557653  0.30161713     0.14000
H700        H  0.69729261  0.58137420  0.32330002     0.13800
H701        H  0.80203596  0.58805317  0.32704934     0.13700
H702        H  0.80206877  0.63227264  0.30535984     0.12700
C703        C  0.65747959  0.10665813  0.37509721     0.19000
C704        C  0.66570587  0.13997018  0.37595005    -0.10100
C705        C  0.64119388  0.16383437  0.37575085    -0.10900
C706        C  0.60833547  0.15450804  0.37469190     0.20600
C707        C  0.60011506  0.12119606  0.37383943    -0.13000
C708        C  0.62462277  0.09733610  0.37403862    -0.11300
C709        C  0.58309585  0.17907601  0.37449485     0.01500
C710        C  0.56198576  0.19967468  0.37437665    -0.31300
C711        C  0.68268151  0.08205401  0.37527174     0.02900
C712        C  0.70355034  0.06121044  0.37532889    -0.33000
H713        H  0.69102046  0.14747490  0.37676422     0.14000
H714        H  0.64784595  0.18951138  0.37641963     0.13800
H715        H  0.57480223  0.11368646  0.37302045     0.13700
H716        H  0.61796731  0.07165988  0.37336503     0.12700
C717        C  0.89973625  0.00590211  0.44664110     0.19000
C718        C  0.90469299  0.02148182  0.43073135    -0.10100
C719        C  0.87923220  0.02340105  0.41875286    -0.10900
C720        C  0.84869785  0.00976767  0.42263968     0.20600
C721        C  0.84375441  0.99420227  0.43855257    -0.13000
C722        C  0.86920877  0.99228599  0.45052900    -0.11300
C723        C  0.82255869  0.01145496  0.41026037     0.01500
C724        C  0.80079298  0.01230752  0.39980183    -0.31300
C725        C  0.92596274  0.00380196  0.45893661     0.02900
C726        C  0.94809123  0.00219010  0.46914970    -0.33000
H727        H  0.92821437  0.03206468  0.42758365     0.14000
H728        H  0.88335550  0.03543419  0.40647673     0.13800
H729        H  0.82027230  0.98351836  0.44168164     0.13700
H730        H  0.86511576  0.98016950  0.46278550     0.12700
C731        C  0.75152031  0.86552249  0.30205894     0.19000
C732        C  0.72691672  0.88933190  0.30152406    -0.10100
C733        C  0.72627579  0.91445489  0.31380300    -0.10900
C734        C  0.75024296  0.91586793  0.32666573     0.20600
C735        C  0.77489755  0.89210470  0.32717437    -0.13000
C736        C  0.77553795  0.86697864  0.31489443    -0.11300
C737        C  0.74957484  0.94164429  0.33933889     0.01500
C738        C  0.74950117  0.96307856  0.35004838    -0.31300
C739        C  0.75197945  0.83957725  0.28948344     0.02900
C740        C  0.75180022  0.81804529  0.27883210    -0.33000
H741        H  0.70823342  0.88843472  0.29164712     0.14000
H742        H  0.70711926  0.93271333  0.31328352     0.13800
H743        H  0.79356351  0.89298598  0.33706065     0.13700
H744        H  0.79467576  0.84870073  0.31542179     0.12700
loop_ 
_geom_bond_atom_site_label_1 
_geom_bond_atom_site_label_2 
_geom_bond_distance 
_geom_bond_site_symmetry_2 
_ccdc_geom_bond_type 
C1            N2   1.358       .  A
C1            N6   1.358       .  A
C1          C712   1.437       .  S
N2            C3   1.357   1_545  A
C3            N4   1.356       .  A
C3          C738   1.435       .  S
N4            C5   1.356   1_565  A
C5            N6   1.358       .  A
C5          C724   1.436       .  S
O7          Ni15   1.918       .  S
O7           C17   1.280       .  A
O8          Ni15   1.917       .  S
O8           C18   1.280       .  A
O9          Ni15   1.918       .  S
O9           C19   1.280       .  A
O10         Ni15   1.918       .  S
O10          C20   1.280       .  A
O11         Ni16   1.918       .  S
O11          C20   1.280       .  A
O12         Ni16   1.919       .  S
O12          C19   1.280       .  A
O13         Ni16   1.917       .  S
O13          C18   1.279       .  A
O14         Ni16   1.916       .  S
O14          C17   1.279       .  A
Ni15        Ni16   2.394       .  S
C17         C740   1.434       .  S
C18         C684   1.434       .  S
C19         C668   1.435       .  S
C20         C698   1.435       .  S
C21          N22   1.357       .  A
C21          N26   1.357       .  A
C21         C642   1.435       .  S
N22          C23   1.357       .  A
C23          N24   1.357       .  A
C23         C696   1.435       .  S
N24          C25   1.357       .  A
C25          N26   1.357       .  A
C25         C654   1.434       .  S
C27          N28   1.358       .  A
C27          N32   1.357       .  A
C27         C612   1.435       .  S
N28          C29   1.358       .  A
C29          N30   1.357       .  A
C29         C628   1.435       .  S
N30          C31   1.356       .  A
C31          N32   1.357       .  A
C31         C682   1.434       .  S
C33          N34   1.358       .  A
C33          N38   1.358       .  A
C33         C584   1.436       .  S
N34          C35   1.357   1_545  A
C35          N36   1.357       .  A
C35         C670   1.436       .  S
N36          C37   1.357   1_565  A
C37          N38   1.357       .  A
C37         C598   1.435       .  S
C39         C600   1.444       .  S
C39          C40   1.408       .  A
C39          C44   1.401   1_544  A
C40         C556   1.442       .  S
C40          C41   1.400   1_554  A
C41          C42   1.400   1_545  A
C41          H46   1.085       .  S
C42         C570   1.443       .  S
C42          C43   1.409       .  A
C43         C542   1.442       .  S
C43          C44   1.401       .  A
C44          H45   1.085       .  S
C47          N48   1.357       .  A
C47          N52   1.358       .  A
C47         C516   1.435       .  S
N48          C49   1.357   1_565  A
C49          N50   1.357       .  A
C49         C528   1.434       .  S
N50          C51   1.357   1_545  A
C51          N52   1.357       .  A
C51         C572   1.435       .  S
C53          N54   1.357       .  A
C53          N58   1.357       .  A
C53         C472   1.434       .  S
N54          C55   1.356       .  A
C55          N56   1.356       .  A
C55         C500   1.434       .  S
N56          C57   1.357       .  A
C57          N58   1.357       .  A
C57         C486   1.434       .  S
O59         Ni67   1.917       .  S
O59          C69   1.280       .  A
O60         Ni67   1.917       .  S
O60          C70   1.280       .  A
O61         Ni67   1.915       .  S
O61          C71   1.279       .  A
O62         Ni67   1.915       .  S
O62          C72   1.279       .  A
O63         Ni68   1.919       .  S
O63          C72   1.280       .  A
O64         Ni68   1.919       .  S
O64          C71   1.280       .  A
O65         Ni68   1.916       .  S
O65          C70   1.279       .  A
O66         Ni68   1.915       .  S
O66          C69   1.279       .  A
Ni67        Ni68   2.395       .  S
C69         C460   1.433       .  S
C70         C502   1.433       .  S
C71         C444   1.433       .  S
C72         C530   1.434       .  S
C73          N74   1.358       .  A
C73          N78   1.358       .  A
C73         C416   1.435       .  S
N74          C75   1.357   1_565  A
C75          N76   1.356       .  A
C75         C458   1.434       .  S
N76          C77   1.356   1_545  A
C77          N78   1.357       .  A
C77         C430   1.434       .  S
C79          N80   1.357       .  A
C79          N84   1.357       .  A
C79         C388   1.435       .  S
N80          C81   1.357       .  A
C81          N82   1.356       .  A
C81         C402   1.434       .  S
N82          C83   1.356       .  A
C83          N84   1.357       .  A
C83         C446   1.434       .  S
C85         C626   1.444       .  S
C85          C86   1.409       .  A
C85          C90   1.401   1_554  A
C86         C360   1.445       .  S
C86          C87   1.401   1_654  A
C87          C88   1.401       .  A
C87          H92   1.085       .  S
C88         C488   1.443       .  S
C88          C89   1.409   1_455  A
C89         C376   1.445   1_655  S
C89          C90   1.401       .  A
C90          H91   1.085       .  S
O93        Ni101   1.920       .  S
O93         C103   1.280       .  A
O94        Ni101   1.920       .  S
O94         C104   1.280       .  A
O95        Ni101   1.918       .  S
O95         C105   1.280       .  A
O96        Ni101   1.918       .  S
O96         C106   1.280       .  A
O97        Ni102   1.920       .  S
O97         C106   1.280       .  A
O98        Ni102   1.920       .  S
O98         C105   1.280       .  A
O99        Ni102   1.918       .  S
O99         C104   1.280       .  A
O100       Ni102   1.917       .  S
O100        C103   1.280       .  A
Ni101      Ni102   2.394       .  S
C103        C334   1.436       .  S
C104        C304   1.436       .  S
C105        C346   1.436       .  S
C106        C318   1.436       .  S
C107        N108   1.358       .  A
C107        N112   1.357       .  A
C107        C474   1.434       .  S
N108        C109   1.357       .  A
C109        N110   1.357       .  A
C109        C332   1.435       .  S
N110        C111   1.357       .  A
C111        N112   1.356       .  A
C111        C544   1.434       .  S
C113        N114   1.358       .  A
C113        N118   1.358       .  A
C113        C514   1.435       .  S
N114        C115   1.357       .  A
C115        N116   1.357   1_455  A
C115        C374   1.436       .  S
N116        C117   1.357       .  A
C117        N118   1.357   1_655  A
C117        C320   1.436       .  S
C119        N120   1.358       .  A
C119        N124   1.358       .  A
C119        C418   1.436       .  S
N120        C121   1.357       .  A
C121        N122   1.358       .  A
C121        C290   1.437       .  S
N122        C123   1.358       .  A
C123        N124   1.357       .  A
C123        C348   1.437       .  S
C125        N126   1.357       .  A
C125        N130   1.358       .  A
C125        C390   1.436       .  S
N126        C127   1.357       .  A
C127        N128   1.357   1_455  A
C127        C276   1.436       .  S
N128        C129   1.357       .  A
C129        N130   1.358   1_655  A
C129        C306   1.436       .  S
C131        N132   1.358       .  A
C131        N136   1.358       .  A
C131        C586   1.436       .  S
N132        C133   1.357       .  A
C133        N134   1.357   1_655  A
C133        C362   1.435       .  S
N134        C135   1.357       .  A
C135        N136   1.357   1_455  A
C135        C262   1.435       .  S
C137        N138   1.357       .  A
C137        N142   1.358       .  A
C137        C614   1.436       .  S
N138        C139   1.357       .  A
C139        N140   1.356       .  A
C139        C558   1.433       .  S
N140        C141   1.356       .  A
C141        N142   1.358       .  A
C141        C250   1.435       .  S
O143       Ni151   1.917       .  S
O143        C153   1.280       .  A
O144       Ni151   1.918       .  S
O144        C154   1.280       .  A
O145       Ni151   1.918       .  S
O145        C155   1.280       .  A
O146       Ni151   1.917       .  S
O146        C156   1.280       .  A
O147       Ni152   1.918       .  S
O147        C156   1.280       .  A
O148       Ni152   1.919       .  S
O148        C155   1.280       .  A
O149       Ni152   1.918       .  S
O149        C154   1.280       .  A
O150       Ni152   1.917       .  S
O150        C153   1.280       .  A
Ni151      Ni152   2.394       .  S
C153        C222   1.434       .  S
C154        C248   1.435       .  S
C155        C234   1.435       .  S
C156        C264   1.434       .  S
C157        N158   1.358       .  A
C157        N162   1.357       .  A
C157        C640   1.435       .  S
N158        C159   1.357       .  A
C159        N160   1.357   1_655  A
C159        C208   1.435       .  S
N160        C161   1.356       .  A
C161        N162   1.357   1_455  A
C161        C220   1.434       .  S
C163        N164   1.358       .  A
C163        N168   1.358       .  A
C163        C710   1.437       .  S
N164        C165   1.357       .  A
C165        N166   1.356       .  A
C165        C194   1.435       .  S
N166        C167   1.356       .  A
C167        N168   1.358       .  A
C167        C236   1.436       .  S
C169        C726   1.444       .  S
C169        C170   1.409       .  A
C169        C174   1.401   1_545  A
C170        C206   1.444       .  S
C170        C171   1.401   1_655  A
C171        C172   1.401   1_545  A
C171        H176   1.085       .  S
C172        C432   1.443       .  S
C172        C173   1.408       .  A
C173        C278   1.444       .  S
C173        C174   1.401   1_455  A
C174        H175   1.085       .  S
C177        C192   1.444       .  S
C177        C178   1.408       .  A
C177        C182   1.400       .  A
C178        C656   1.443       .  S
C178        C179   1.402       .  A
C179        C180   1.402       .  A
C179        H184   1.085       .  S
C180        C292   1.446       .  S
C180        C181   1.409       .  A
C181        C404   1.442       .  S
C181        C182   1.401       .  A
C182        H183   1.085       .  S
C185        C193   1.440       .  S
C185        C186   1.401       .  A
C185        C190   1.402       .  A
C186        C187   1.399       .  A
C186        H195   1.083       .  S
C187        C188   1.401       .  A
C187        H196   1.083       .  S
C188        C191   1.439       .  S
C188        C189   1.401       .  A
C189        C190   1.399       .  A
C189        H197   1.083       .  S
C190        H198   1.083       .  S
C191        C192   1.206       .  T
C193        C194   1.206       .  T
C199        C207   1.439       .  S
C199        C200   1.401   1_655  A
C199        C204   1.401       .  A
C200        C201   1.398       .  A
C200        H209   1.084       .  S
C201        C202   1.401   1_455  A
C201        H210   1.083       .  S
C202        C205   1.438       .  S
C202        C203   1.401       .  A
C203        C204   1.399       .  A
C203        H211   1.084       .  S
C204        H212   1.083       .  S
C205        C206   1.205       .  T
C207        C208   1.205       .  T
C213        C221   1.439       .  S
C213        C214   1.401       .  A
C213        C218   1.401       .  A
C214        C215   1.399       .  A
C214        H223   1.083       .  S
C215        C216   1.401       .  A
C215        H224   1.084       .  S
C216        C219   1.439       .  S
C216        C217   1.401       .  A
C217        C218   1.399       .  A
C217        H225   1.083       .  S
C218        H226   1.084       .  S
C219        C220   1.205       .  T
C221        C222   1.205       .  T
C227        C235   1.440       .  S
C227        C228   1.402       .  A
C227        C232   1.401       .  A
C228        C229   1.399       .  A
C228        H237   1.083       .  S
C229        C230   1.401       .  A
C229        H238   1.084       .  S
C230        C233   1.440       .  S
C230        C231   1.402       .  A
C231        C232   1.399       .  A
C231        H239   1.083       .  S
C232        H240   1.084       .  S
C233        C234   1.206       .  T
C235        C236   1.206       .  T
C241        C249   1.439       .  S
C241        C242   1.401       .  A
C241        C246   1.402       .  A
C242        C243   1.399       .  A
C242        H251   1.084       .  S
C243        C244   1.401       .  A
C243        H252   1.083       .  S
C244        C247   1.440       .  S
C244        C245   1.401       .  A
C245        C246   1.399       .  A
C245        H253   1.084       .  S
C246        H254   1.083       .  S
C247        C248   1.206       .  T
C249        C250   1.206       .  T
C255        C263   1.439       .  S
C255        C256   1.401       .  A
C255        C260   1.401       .  A
C256        C257   1.399       .  A
C256        H265   1.084       .  S
C257        C258   1.401       .  A
C257        H266   1.083       .  S
C258        C261   1.439       .  S
C258        C259   1.401       .  A
C259        C260   1.399       .  A
C259        H267   1.083       .  S
C260        H268   1.083       .  S
C261        C262   1.206       .  T
C263        C264   1.206       .  T
C269        C277   1.439       .  S
C269        C270   1.402       .  A
C269        C274   1.401   1_455  A
C270        C271   1.400       .  A
C270        H279   1.084       .  S
C271        C272   1.402       .  A
C271        H280   1.083       .  S
C272        C275   1.440       .  S
C272        C273   1.401   1_455  A
C273        C274   1.398       .  A
C273        H281   1.083       .  S
C274        H282   1.083       .  S
C275        C276   1.206       .  T
C277        C278   1.206       .  T
C283        C291   1.441       .  S
C283        C284   1.402       .  A
C283        C288   1.401       .  A
C284        C285   1.400       .  A
C284        H293   1.084       .  S
C285        C286   1.402       .  A
C285        H294   1.083       .  S
C286        C289   1.441       .  S
C286        C287   1.401       .  A
C287        C288   1.399       .  A
C287        H295   1.083       .  S
C288        H296   1.083       .  S
C289        C290   1.207       .  T
C291        C292   1.207       .  T
C297        C305   1.441       .  S
C297        C298   1.401       .  A
C297        C302   1.402       .  A
C298        C299   1.399       .  A
C298        H307   1.084       .  S
C299        C300   1.402       .  A
C299        H308   1.083       .  S
C300        C303   1.441       .  S
C300        C301   1.401       .  A
C301        C302   1.399       .  A
C301        H309   1.084       .  S
C302        H310   1.083       .  S
C303        C304   1.207       .  T
C305        C306   1.206       .  T
C311        C319   1.440       .  S
C311        C312   1.401       .  A
C311        C316   1.401       .  A
C312        C313   1.400       .  A
C312        H321   1.084       .  S
C313        C314   1.402       .  A
C313        H322   1.083       .  S
C314        C317   1.441       .  S
C314        C315   1.401       .  A
C315        C316   1.399       .  A
C315        H323   1.084       .  S
C316        H324   1.083       .  S
C317        C318   1.206       .  T
C319        C320   1.206       .  T
C325        C333   1.440       .  S
C325        C326   1.401       .  A
C325        C330   1.402       .  A
C326        C327   1.399       .  A
C326        H335   1.084       .  S
C327        C328   1.401       .  A
C327        H336   1.083       .  S
C328        C331   1.440       .  S
C328        C329   1.401       .  A
C329        C330   1.399       .  A
C329        H337   1.084       .  S
C330        H338   1.083       .  S
C331        C332   1.206       .  T
C333        C334   1.206       .  T
C339        C347   1.441       .  S
C339        C340   1.402       .  A
C339        C344   1.402       .  A
C340        C341   1.399       .  A
C340        H349   1.083       .  S
C341        C342   1.401       .  A
C341        H350   1.084       .  S
C342        C345   1.441       .  S
C342        C343   1.402       .  A
C343        C344   1.400       .  A
C343        H351   1.083       .  S
C344        H352   1.084       .  S
C345        C346   1.207       .  T
C347        C348   1.207       .  T
C353        C361   1.440       .  S
C353        C354   1.402       .  A
C353        C358   1.401   1_655  A
C354        C355   1.400       .  A
C354        H363   1.083       .  S
C355        C356   1.402       .  A
C355        H364   1.083       .  S
C356        C359   1.439       .  S
C356        C357   1.401   1_655  A
C357        C358   1.398       .  A
C357        H365   1.083       .  S
C358        H366   1.083       .  S
C359        C360   1.206       .  T
C361        C362   1.206       .  T
C367        C375   1.440       .  S
C367        C368   1.401       .  A
C367        C372   1.401   1_455  A
C368        C369   1.399       .  A
C368        H377   1.083       .  S
C369        C370   1.401       .  A
C369        H378   1.084       .  S
C370        C373   1.440       .  S
C370        C371   1.401   1_455  A
C371        C372   1.399       .  A
C371        H379   1.083       .  S
C372        H380   1.083       .  S
C373        C374   1.206       .  T
C375        C376   1.206       .  T
C381        C389   1.440       .  S
C381        C382   1.401       .  A
C381        C386   1.402       .  A
C382        C383   1.399       .  A
C382        H391   1.083       .  S
C383        C384   1.401       .  A
C383        H392   1.083       .  S
C384        C387   1.439       .  S
C384        C385   1.401       .  A
C385        C386   1.399       .  A
C385        H393   1.083       .  S
C386        H394   1.083       .  S
C387        C388   1.205       .  T
C389        C390   1.206       .  T
C395        C403   1.437       .  S
C395        C396   1.401       .  A
C395        C400   1.401       .  A
C396        C397   1.398       .  A
C396        H405   1.083       .  S
C397        C398   1.401       .  A
C397        H406   1.083       .  S
C398        C401   1.438       .  S
C398        C399   1.401       .  A
C399        C400   1.398       .  A
C399        H407   1.083       .  S
C400        H408   1.084       .  S
C401        C402   1.205       .  T
C403        C404   1.204       .  T
C409        C417   1.440       .  S
C409        C410   1.401       .  A
C409        C414   1.402       .  A
C410        C411   1.399       .  A
C410        H419   1.083       .  S
C411        C412   1.401       .  A
C411        H420   1.083       .  S
C412        C415   1.440       .  S
C412        C413   1.401       .  A
C413        C414   1.400       .  A
C413        H421   1.083       .  S
C414        H422   1.083       .  S
C415        C416   1.206       .  T
C417        C418   1.206       .  T
C423        C431   1.438       .  S
C423        C424   1.401       .  A
C423        C428   1.401   1_565  A
C424        C425   1.399       .  A
C424        H433   1.084       .  S
C425        C426   1.401       .  A
C425        H434   1.083       .  S
C426        C429   1.439       .  S
C426        C427   1.401   1_565  A
C427        C428   1.398       .  A
C427        H435   1.083       .  S
C428        H436   1.083       .  S
C429        C430   1.205       .  T
C431        C432   1.205       .  T
C437        C445   1.438       .  S
C437        C438   1.401       .  A
C437        C442   1.401       .  A
C438        C439   1.399       .  A
C438        H447   1.083       .  S
C439        C440   1.402       .  A
C439        H448   1.083       .  S
C440        C443   1.438       .  S
C440        C441   1.401       .  A
C441        C442   1.398       .  A
C441        H449   1.083       .  S
C442        H450   1.083       .  S
C443        C444   1.205       .  T
C445        C446   1.205       .  T
C451        C459   1.438       .  S
C451        C452   1.401       .  A
C451        C456   1.401       .  A
C452        C453   1.399       .  A
C452        H461   1.083       .  S
C453        C454   1.401       .  A
C453        H462   1.083       .  S
C454        C457   1.438       .  S
C454        C455   1.401       .  A
C455        C456   1.398       .  A
C455        H463   1.083       .  S
C456        H464   1.084       .  S
C457        C458   1.205       .  T
C459        C460   1.205       .  T
C465        C473   1.438       .  S
C465        C466   1.401       .  A
C465        C470   1.401       .  A
C466        C467   1.398       .  A
C466        H475   1.083       .  S
C467        C468   1.401       .  A
C467        H476   1.083       .  S
C468        C471   1.438       .  S
C468        C469   1.401       .  A
C469        C470   1.399       .  A
C469        H477   1.083       .  S
C470        H478   1.083       .  S
C471        C472   1.205       .  T
C473        C474   1.205       .  T
C479        C487   1.438       .  S
C479        C480   1.401       .  A
C479        C484   1.401       .  A
C480        C481   1.398       .  A
C480        H489   1.083       .  S
C481        C482   1.401       .  A
C481        H490   1.083       .  S
C482        C485   1.439       .  S
C482        C483   1.401       .  A
C483        C484   1.399       .  A
C483        H491   1.083       .  S
C484        H492   1.083       .  S
C485        C486   1.205       .  T
C487        C488   1.205       .  T
C493        C501   1.438       .  S
C493        C494   1.401       .  A
C493        C498   1.401       .  A
C494        C495   1.398       .  A
C494        H503   1.084       .  S
C495        C496   1.401       .  A
C495        H504   1.083       .  S
C496        C499   1.438       .  S
C496        C497   1.401       .  A
C497        C498   1.399       .  A
C497        H505   1.084       .  S
C498        H506   1.083       .  S
C499        C500   1.205       .  T
C501        C502   1.205       .  T
C507        C515   1.439       .  S
C507        C508   1.401       .  A
C507        C512   1.401       .  A
C508        C509   1.399       .  A
C508        H517   1.083       .  S
C509        C510   1.401       .  A
C509        H518   1.083       .  S
C510        C513   1.439       .  S
C510        C511   1.401       .  A
C511        C512   1.399       .  A
C511        H519   1.083       .  S
C512        H520   1.083       .  S
C513        C514   1.206       .  T
C515        C516   1.205       .  T
C521        C529   1.439       .  S
C521        C522   1.402       .  A
C521        C526   1.401       .  A
C522        C523   1.399       .  A
C522        H531   1.083       .  S
C523        C524   1.401       .  A
C523        H532   1.083       .  S
C524        C527   1.439       .  S
C524        C525   1.401       .  A
C525        C526   1.398       .  A
C525        H533   1.083       .  S
C526        H534   1.083       .  S
C527        C528   1.205       .  T
C529        C530   1.205       .  T
C535        C543   1.438       .  S
C535        C536   1.401       .  A
C535        C540   1.401       .  A
C536        C537   1.398       .  A
C536        H545   1.083       .  S
C537        C538   1.400       .  A
C537        H546   1.083       .  S
C538        C541   1.437       .  S
C538        C539   1.401       .  A
C539        C540   1.399       .  A
C539        H547   1.083       .  S
C540        H548   1.083       .  S
C541        C542   1.205       .  T
C543        C544   1.205       .  T
C549        C557   1.438       .  S
C549        C550   1.401       .  A
C549        C554   1.401       .  A
C550        C551   1.398       .  A
C550        H559   1.084       .  S
C551        C552   1.400       .  A
C551        H560   1.084       .  S
C552        C555   1.437       .  S
C552        C553   1.401       .  A
C553        C554   1.398       .  A
C553        H561   1.084       .  S
C554        H562   1.083       .  S
C555        C556   1.204       .  T
C557        C558   1.205       .  T
C563        C571   1.439       .  S
C563        C564   1.401   1_565  A
C563        C568   1.401       .  A
C564        C565   1.399       .  A
C564        H573   1.084       .  S
C565        C566   1.401   1_545  A
C565        H574   1.083       .  S
C566        C569   1.438       .  S
C566        C567   1.401       .  A
C567        C568   1.398       .  A
C567        H575   1.083       .  S
C568        H576   1.083       .  S
C569        C570   1.205       .  T
C571        C572   1.206       .  T
C577        C585   1.440       .  S
C577        C578   1.401       .  A
C577        C582   1.401       .  A
C578        C579   1.399       .  A
C578        H587   1.083       .  S
C579        C580   1.401       .  A
C579        H588   1.083       .  S
C580        C583   1.440       .  S
C580        C581   1.401       .  A
C581        C582   1.399       .  A
C581        H589   1.083       .  S
C582        H590   1.083       .  S
C583        C584   1.206       .  T
C585        C586   1.206       .  T
C591        C599   1.439       .  S
C591        C592   1.401   1_545  A
C591        C596   1.402       .  A
C592        C593   1.398       .  A
C592        H601   1.083       .  S
C593        C594   1.401   1_565  A
C593        H602   1.084       .  S
C594        C597   1.440       .  S
C594        C595   1.402       .  A
C595        C596   1.399       .  A
C595        H603   1.083       .  S
C596        H604   1.084       .  S
C597        C598   1.206       .  T
C599        C600   1.206       .  T
C605        C613   1.440       .  S
C605        C606   1.402       .  A
C605        C610   1.401       .  A
C606        C607   1.399       .  A
C606        H615   1.083       .  S
C607        C608   1.401       .  A
C607        H616   1.083       .  S
C608        C611   1.440       .  S
C608        C609   1.401       .  A
C609        C610   1.399       .  A
C609        H617   1.083       .  S
C610        H618   1.083       .  S
C611        C612   1.206       .  T
C613        C614   1.206       .  T
C619        C627   1.439       .  S
C619        C620   1.401       .  A
C619        C624   1.402       .  A
C620        C621   1.398       .  A
C620        H629   1.084       .  S
C621        C622   1.401       .  A
C621        H630   1.083       .  S
C622        C625   1.438       .  S
C622        C623   1.402       .  A
C623        C624   1.399       .  A
C623        H631   1.084       .  S
C624        H632   1.083       .  S
C625        C626   1.205       .  T
C627        C628   1.206       .  T
C633        C641   1.439       .  S
C633        C634   1.401       .  A
C633        C638   1.401       .  A
C634        C635   1.399       .  A
C634        H643   1.083       .  S
C635        C636   1.401       .  A
C635        H644   1.083       .  S
C636        C639   1.439       .  S
C636        C637   1.401       .  A
C637        C638   1.399       .  A
C637        H645   1.083       .  S
C638        H646   1.083       .  S
C639        C640   1.205       .  T
C641        C642   1.205       .  T
C647        C655   1.438       .  S
C647        C648   1.402       .  A
C647        C652   1.400       .  A
C648        C649   1.399       .  A
C648        H657   1.084       .  S
C649        C650   1.401       .  A
C649        H658   1.083       .  S
C650        C653   1.438       .  S
C650        C651   1.401       .  A
C651        C652   1.398       .  A
C651        H659   1.084       .  S
C652        H660   1.083       .  S
C653        C654   1.205       .  T
C655        C656   1.205       .  T
C661        C669   1.440       .  S
C661        C662   1.401       .  A
C661        C666   1.401       .  A
C662        C663   1.399       .  A
C662        H671   1.083       .  S
C663        C664   1.401       .  A
C663        H672   1.083       .  S
C664        C667   1.440       .  S
C664        C665   1.402       .  A
C665        C666   1.399       .  A
C665        H673   1.083       .  S
C666        H674   1.083       .  S
C667        C668   1.206       .  T
C669        C670   1.206       .  T
C675        C683   1.439       .  S
C675        C676   1.401       .  A
C675        C680   1.401       .  A
C676        C677   1.399       .  A
C676        H685   1.083       .  S
C677        C678   1.401       .  A
C677        H686   1.083       .  S
C678        C681   1.439       .  S
C678        C679   1.401       .  A
C679        C680   1.398       .  A
C679        H687   1.083       .  S
C680        H688   1.084       .  S
C681        C682   1.205       .  T
C683        C684   1.205       .  T
C689        C697   1.440       .  S
C689        C690   1.401       .  A
C689        C694   1.401       .  A
C690        C691   1.399       .  A
C690        H699   1.084       .  S
C691        C692   1.401       .  A
C691        H700   1.083       .  S
C692        C695   1.440       .  S
C692        C693   1.401       .  A
C693        C694   1.399       .  A
C693        H701   1.083       .  S
C694        H702   1.083       .  S
C695        C696   1.206       .  T
C697        C698   1.206       .  T
C703        C711   1.441       .  S
C703        C704   1.401       .  A
C703        C708   1.402       .  A
C704        C705   1.400       .  A
C704        H713   1.083       .  S
C705        C706   1.402       .  A
C705        H714   1.083       .  S
C706        C709   1.441       .  S
C706        C707   1.401       .  A
C707        C708   1.399       .  A
C707        H715   1.083       .  S
C708        H716   1.083       .  S
C709        C710   1.207       .  T
C711        C712   1.207       .  T
C717        C725   1.439       .  S
C717        C718   1.401       .  A
C717        C722   1.401   1_545  A
C718        C719   1.399       .  A
C718        H727   1.084       .  S
C719        C720   1.402       .  A
C719        H728   1.083       .  S
C720        C723   1.440       .  S
C720        C721   1.401   1_545  A
C721        C722   1.399       .  A
C721        H729   1.084       .  S
C722        H730   1.083       .  S
C723        C724   1.206       .  T
C725        C726   1.206       .  T
C731        C739   1.439       .  S
C731        C732   1.401       .  A
C731        C736   1.401       .  A
C732        C733   1.399       .  A
C732        H741   1.084       .  S
C733        C734   1.401       .  A
C733        H742   1.083       .  S
C734        C737   1.439       .  S
C734        C735   1.401       .  A
C735        C736   1.399       .  A
C735        H743   1.083       .  S
C736        H744   1.083       .  S
C737        C738   1.205       .  T
C739        C740   1.205       .  T
