geometry optimzed in LAMMPS
_audit_creation_date              2020-11-30 
_audit_creation_method            'lammps2cif' 
_symmetry_space_group_name_H-M    'P1' 
_symmetry_Int_Tables_number       1 
_symmetry_cell_setting            triclinic 
loop_ 
_symmetry_equiv_pos_as_xyz 
  x,y,z 
_cell_length_a                    22.67781012 
_cell_length_b                    22.68180724119641 
_cell_length_c                    29.944979425178612 
_cell_angle_alpha                 89.99261879566515 
_cell_angle_beta                  90.00622370930805 
_cell_angle_gamma                 89.99615037394138 
loop_ 
_atom_site_label 
_atom_site_type_symbol 
_atom_site_fract_x 
_atom_site_fract_y 
_atom_site_fract_z 
_atom_site_charge 
O1          O  0.43015156  0.05971851  0.12257771    -0.69800
O2          O  0.43015867  0.94075317  0.21147705    -0.70100
O3          O  0.42989067  0.94163259  0.12197186    -0.69900
O4          O  0.43039302  0.05893963  0.21213387    -0.69900
O5          O  0.33448661  0.05953550  0.21250016    -0.69900
O6          O  0.33397587  0.94142315  0.12186778    -0.69900
O7          O  0.33424706  0.94065178  0.21196434    -0.69800
O8          O  0.33424045  0.06019430  0.12238703    -0.70000
V9          V  0.42819376  0.00026569  0.16705455     1.35200
V10         V  0.33601659  0.00045038  0.16719118     1.35200
C11         C  0.38239589  0.07985236  0.10722064     0.79400
C12         C  0.38241815  0.92068537  0.22688515     0.79500
C13         C  0.38205563  0.92180483  0.10654237     0.79300
C14         C  0.38271644  0.07907964  0.22762654     0.79300
C15         C  0.41652532  0.18879171  0.33236443    -0.00500
C16         C  0.41691021  0.81177771  0.00240189    -0.00500
O17         O  0.75901028  0.94087185  0.21156117    -0.69800
O18         O  0.75908190  0.06024421  0.12192650    -0.70100
O19         O  0.75868451  0.05978240  0.21200025    -0.69900
O20         O  0.75936036  0.94146117  0.12149843    -0.69900
O21         O  0.66344475  0.94160677  0.12155791    -0.69900
O22         O  0.66278135  0.05919425  0.21151635    -0.69900
O23         O  0.66316650  0.05971448  0.12198491    -0.69800
O24         O  0.66309686  0.94096600  0.21104597    -0.70000
V25         V  0.75725173  0.00058591  0.16675479     1.35200
V26         V  0.66507333  0.00037347  0.16654013     1.35200
C27         C  0.71084594  0.92090882  0.22646608     0.79400
C28         C  0.71095000  0.07989759  0.10672713     0.79500
C29         C  0.71042384  0.07940126  0.22702533     0.79300
C30         C  0.71130214  0.92174540  0.10619980     0.79300
C31         C  0.67667674  0.18898362  0.33189003    -0.00500
C32         C  0.67680470  0.81131424  0.33105775    -0.00500
O33         O  0.98694937  0.28850258  0.21338788    -0.69800
O34         O  0.10618193  0.28858486  0.12354287    -0.70100
O35         O  0.10585395  0.28850740  0.21368949    -0.69900
O36         O  0.98740922  0.28860917  0.12323595    -0.69900
O37         O  0.98771373  0.38449616  0.12356696    -0.69900
O38         O  0.10554066  0.38439705  0.21345038    -0.69900
O39         O  0.10586502  0.38447015  0.12383440    -0.69800
O40         O  0.98729125  0.38439054  0.21318080    -0.70000
V41         V  0.04659813  0.29034049  0.16848644     1.35200
V42         V  0.04660181  0.38249261  0.16852791     1.35200
C43         C  0.96712974  0.33661817  0.22849593     0.79400
C44         C  0.12583154  0.33671861  0.10833133     0.79500
C45         C  0.12558984  0.33662816  0.22885080     0.79300
C46         C  0.96786060  0.33676026  0.10797068     0.79300
C47         C  0.23492532  0.37039691  0.00309103    -0.00500
C48         C  0.85855556  0.37045568  0.00281983    -0.00500
O49         O  0.10605665  0.71212150  0.21091189    -0.69800
O50         O  0.98732452  0.71299385  0.12072656    -0.70100
O51         O  0.98713846  0.71228537  0.21074573    -0.69900
O52         O  0.10620268  0.71292337  0.12090520    -0.69900
O53         O  0.10569062  0.61702038  0.12067853    -0.69900
O54         O  0.98746574  0.61639093  0.21012391    -0.69900
O55         O  0.98752058  0.61708988  0.12066908    -0.69800
O56         O  0.10570102  0.61623135  0.21012209    -0.70000
V57         V  0.04667453  0.71080221  0.16581289     1.35200
V58         V  0.04659187  0.61863581  0.16540163     1.35200
C59         C  0.12583638  0.66381985  0.22573267     0.79400
C60         C  0.96748048  0.66496427  0.10549690     0.79500
C61         C  0.96735167  0.66405024  0.22564606     0.79300
C62         C  0.12594466  0.66488499  0.10563901     0.79300
C63         C  0.23544227  0.63045259  0.33071464    -0.00500
C64         C  0.85809035  0.63066190  0.33068561    -0.00500
C65         C  0.92390335  0.66248015  0.26051179    -0.11300
C66         C  0.89122943  0.65286104  0.29151152    -0.12900
C67         C  0.89066549  0.65359897  0.04024903    -0.11300
C68         C  0.92383950  0.66375653  0.07081150    -0.12900
C69         C  0.20216939  0.65234695  0.29148291    -0.11300
C70         C  0.16936608  0.66205504  0.26056028    -0.12900
C71         C  0.16972761  0.66370649  0.07106710    -0.11300
C72         C  0.20299296  0.65360968  0.04055664    -0.12900
C73         C  0.79922959  0.46878494  0.00377940    -0.11400
C74         C  0.85278920  0.43745573  0.00792670     0.10700
C75         C  0.90427213  0.46993508  0.32047254    -0.11400
C76         C  0.90451839  0.53089422  0.31979101    -0.11400
C77         C  0.85247731  0.56354599  0.32651020     0.10700
C78         C  0.79878581  0.53095441  0.00360261    -0.11400
H79         H  0.75798573  0.44566769  0.99901393     0.14700
H80         H  0.94613706  0.44742073  0.31675298     0.14700
H81         H  0.94653257  0.55296366  0.31556375     0.14700
H82         H  0.75721855  0.55347251  0.99873930     0.14700
C83         C  0.29499677  0.53082280  0.00369998    -0.11400
C84         C  0.24062840  0.56322411  0.32704671     0.10700
C85         C  0.18833659  0.53070032  0.32110399    -0.11400
C86         C  0.18842330  0.46970984  0.32189810    -0.11400
C87         C  0.24085449  0.43753386  0.32844905     0.10700
C88         C  0.29451593  0.46862916  0.00381633    -0.11400
H89         H  0.33645185  0.55334510  0.99835323     0.14700
H90         H  0.14632585  0.55291519  0.31725582     0.14700
H91         H  0.14645579  0.44727153  0.31863230     0.14700
H92         H  0.33562765  0.44546519  0.99852400     0.14700
C93         C  0.89240404  0.34774794  0.04152212    -0.11300
C94         C  0.92497111  0.33815578  0.07263199    -0.12900
C95         C  0.92349817  0.33794244  0.26329060    -0.11300
C96         C  0.89050216  0.34771603  0.29408889    -0.12900
C97         C  0.20217603  0.34764377  0.29448631    -0.11300
C98         C  0.16910702  0.33796595  0.26371883    -0.12900
C99         C  0.20132453  0.34756954  0.04188590    -0.11300
C100        C  0.16884764  0.33805237  0.07306754    -0.12900
C101        C  0.73652562  0.73429093  0.95854962    -0.11400
C102        C  0.71059653  0.75265165  0.33478137     0.10700
C103        C  0.73909512  0.73584850  0.37467005    -0.11400
C104        C  0.78264557  0.69264460  0.37453994    -0.11400
C105        C  0.79944639  0.66447558  0.33452387     0.10700
C106        C  0.77963180  0.69055966  0.95845267    -0.11400
H107        H  0.72700644  0.75597077  0.92718632     0.14700
H108        H  0.73058970  0.75820054  0.40589635     0.14700
H109        H  0.80519564  0.68409516  0.40568471     0.14700
H110        H  0.80109322  0.68090167  0.92703185     0.14700
C111        C  0.71946596  0.28363760  0.29794559    -0.11400
C112        C  0.71014018  0.24792205  0.33586866     0.10700
C113        C  0.72043601  0.28354556  0.03702980    -0.11400
C114        C  0.76460874  0.32689120  0.03716722    -0.11400
C115        C  0.79998748  0.33636006  0.99909053     0.10700
C116        C  0.76286471  0.32779213  0.29824285    -0.11400
H117        H  0.69673786  0.27403687  0.26699202     0.14700
H118        H  0.69743631  0.27393341  0.06787932     0.14700
H119        H  0.77440055  0.34964399  0.06809015     0.14700
H120        H  0.77249696  0.35096708  0.26748778     0.14700
C121        C  0.71006061  0.87846157  0.07122870    -0.11300
C122        C  0.69995328  0.84546381  0.04053097    -0.12900
C123        C  0.69953275  0.84464357  0.29216479    -0.11300
C124        C  0.70940569  0.87736854  0.26125270    -0.12900
C125        C  0.69910136  0.15588662  0.29273662    -0.11300
C126        C  0.70879372  0.12295924  0.26187339    -0.12900
C127        C  0.69974678  0.15609844  0.04097222    -0.11300
C128        C  0.70961704  0.12328345  0.07183097    -0.12900
C129        C  0.37333418  0.71732234  0.29621528    -0.11400
C130        C  0.38341734  0.75187102  0.33465059     0.10700
C131        C  0.37351567  0.71819373  0.03721241    -0.11400
C132        C  0.33024727  0.67399971  0.03715711    -0.11400
C133        C  0.29436551  0.66389761  0.33426500     0.10700
C134        C  0.32926426  0.67389387  0.29600602    -0.11400
H135        H  0.39588563  0.72749004  0.26529022     0.14700
H136        H  0.39572436  0.72862744  0.06824482     0.14700
H137        H  0.32012823  0.65162026  0.06817981     0.14700
H138        H  0.31908963  0.65167717  0.26494842     0.14700
C139        C  0.51625483  0.85782111  0.31924076    -0.11400
C140        C  0.48402953  0.80562344  0.32648442     0.10700
C141        C  0.51551129  0.75320136  0.00337207    -0.11400
C142        C  0.57764189  0.75312608  0.00332920    -0.11400
C143        C  0.60971180  0.80587891  0.32639187     0.10700
C144        C  0.57724823  0.85793835  0.31915722    -0.11400
H145        H  0.49386018  0.89967769  0.31510129     0.14700
H146        H  0.49267901  0.71192387  0.99804121     0.14700
H147        H  0.60037228  0.71178714  0.99798628     0.14700
H148        H  0.59946150  0.89987194  0.31494279     0.14700
C149        C  0.37309100  0.28289533  0.29800575    -0.11400
C150        C  0.38299558  0.24771317  0.33613923     0.10700
C151        C  0.35561359  0.26518192  0.37632362    -0.11400
C152        C  0.31241634  0.30884009  0.37656801    -0.11400
C153        C  0.29483669  0.33678905  0.33663159     0.10700
C154        C  0.32956717  0.32692461  0.29825734    -0.11400
H155        H  0.39545808  0.27294928  0.26696701     0.14700
H156        H  0.36474290  0.24300786  0.40753163     0.14700
H157        H  0.29059434  0.31783268  0.40793684     0.14700
H158        H  0.28597983  0.31455346  0.92818858     0.14700
C159        C  0.51609823  0.14162102  0.32141689    -0.11400
C160        C  0.48371203  0.19391728  0.32787828     0.10700
C161        C  0.51541217  0.24842778  0.00346773    -0.11400
C162        C  0.57764420  0.24856749  0.00347774    -0.11400
C163        C  0.60945815  0.19402971  0.32760809     0.10700
C164        C  0.57712112  0.14168487  0.32124702    -0.11400
H165        H  0.49379058  0.09963082  0.31785393     0.14700
H166        H  0.49245373  0.28963227  0.99807618     0.14700
H167        H  0.60042571  0.28987160  0.99811477     0.14700
H168        H  0.59948756  0.09973762  0.31755596     0.14700
C169        C  0.38391353  0.87713175  0.26167562    -0.11300
C170        C  0.39396918  0.84434817  0.29252865    -0.12900
C171        C  0.39342266  0.84579739  0.04067913    -0.11300
C172        C  0.38333895  0.87868448  0.07145205    -0.12900
C173        C  0.39398693  0.15544118  0.29338581    -0.11300
C174        C  0.38427384  0.12250688  0.26254417    -0.12900
C175        C  0.39369256  0.15566361  0.04115930    -0.11300
C176        C  0.38380889  0.12308079  0.07217586    -0.12900
O177        O  0.44206915  0.05767177  0.45709155    -0.69800
O178        O  0.43543757  0.94024476  0.54709102    -0.70100
O179        O  0.44245903  0.94005997  0.45740748    -0.69900
O180        O  0.43505897  0.05839339  0.54668007    -0.69900
O181        O  0.33925965  0.05790557  0.54320992    -0.69900
O182        O  0.34673789  0.94006863  0.45268302    -0.69900
O183        O  0.33970048  0.93908156  0.54283325    -0.69800
O184        O  0.34628545  0.05808780  0.45313241    -0.70000
V185        V  0.43680916  0.99906921  0.50207570     1.35200
V186        V  0.34477656  0.99877033  0.49810327     1.35200
C187        C  0.39544232  0.07704079  0.43939722     0.79400
C188        C  0.38666442  0.91987511  0.56030984     0.79500
C189        C  0.39600796  0.92105325  0.43922567     0.79300
C190        C  0.38613737  0.07804175  0.56020313     0.79300
C191        C  0.41681081  0.18883992  0.66435871    -0.00500
C192        C  0.41691713  0.81075424  0.33124491    -0.00500
O193        O  0.75330294  0.93979639  0.54274956    -0.69800
O194        O  0.74699187  0.05848205  0.45283084    -0.70100
O195        O  0.75369333  0.05851708  0.54293907    -0.69900
O196        O  0.74659674  0.94055775  0.45257259    -0.69900
O197        O  0.65084743  0.94059868  0.45703534    -0.69900
O198        O  0.65788014  0.05893980  0.54626262    -0.69900
O199        O  0.65119445  0.05811499  0.45663126    -0.69800
O200        O  0.65754438  0.94084485  0.54675800    -0.70000
V201        V  0.74836095  0.99932276  0.49790837     1.35200
V202        V  0.65630859  0.99960232  0.50168343     1.35200
C203        C  0.70629973  0.92062836  0.56016876     0.79400
C204        C  0.69787396  0.07735764  0.43895182     0.79500
C205        C  0.70676274  0.07855333  0.55989324     0.79300
C206        C  0.69737515  0.92164182  0.43895559     0.79300
C207        C  0.67629954  0.18875761  0.66442115    -0.00500
C208        C  0.67665293  0.81083529  0.66537977    -0.00500
O209        O  0.98660062  0.29303114  0.54356439    -0.69800
O210        O  0.10521748  0.30025489  0.45369710    -0.70100
O211        O  0.10542714  0.29248679  0.54369462    -0.69900
O212        O  0.98712702  0.30083701  0.45355739    -0.69900
O213        O  0.98770465  0.39653668  0.45833400    -0.69900
O214        O  0.10552489  0.38822099  0.54794318    -0.69900
O215        O  0.10542071  0.39596419  0.45842964    -0.69800
O216        O  0.98739681  0.38875749  0.54789853    -0.70000
V217        V  0.04609314  0.29843570  0.49876579     1.35200
V218        V  0.04649806  0.39042672  0.50314587     1.35200
C219        C  0.96713975  0.33989108  0.56098855     0.79400
C220        C  0.12454507  0.34946648  0.44041270     0.79500
C221        C  0.12534468  0.33919475  0.56107493     0.79300
C222        C  0.96826553  0.35022229  0.44023043     0.79300
C223        C  0.23590886  0.37038538  0.33320710    -0.00500
C224        C  0.85694862  0.37081669  0.33278885    -0.00500
O225        O  0.10612304  0.70684706  0.54240939    -0.69800
O226        O  0.98765887  0.70043816  0.45229462    -0.70100
O227        O  0.98738144  0.70634375  0.54251513    -0.69900
O228        O  0.10556814  0.70096749  0.45218291    -0.69900
O229        O  0.10578752  0.60517963  0.45586761    -0.69900
O230        O  0.98806009  0.61055266  0.54574568    -0.69900
O231        O  0.98828572  0.60465020  0.45595202    -0.69800
O232        O  0.10622462  0.61105131  0.54561912    -0.70000
V233        V  0.04668588  0.70185743  0.49747994     1.35200
V234        V  0.04707911  0.60979688  0.50081561     1.35200
C235        C  0.12592489  0.65982737  0.55940289     0.79400
C236        C  0.96902208  0.65131994  0.43826393     0.79500
C237        C  0.96801397  0.65918452  0.55955793     0.79300
C238        C  0.12463307  0.65200728  0.43816542     0.79300
C239        C  0.23530365  0.62953361  0.66474828    -0.00500
C240        C  0.85825056  0.62983443  0.66502924    -0.00500
C241        C  0.92509707  0.65996889  0.59491544    -0.11300
C242        C  0.89239882  0.65186055  0.62620106    -0.12900
C243        C  0.89626966  0.64197276  0.36989113    -0.11300
C244        C  0.92829074  0.64806671  0.40173249    -0.12900
C245        C  0.20147429  0.65230835  0.62601155    -0.11300
C246        C  0.16888480  0.66082626  0.59472235    -0.12900
C247        C  0.16544126  0.64903362  0.40167617    -0.11300
C248        C  0.19750268  0.64262782  0.36989929    -0.12900
C249        C  0.79899454  0.46994120  0.33304505    -0.11400
C250        C  0.85192615  0.43789918  0.32768897     0.10700
C251        C  0.90424671  0.46922057  0.65412265    -0.11400
C252        C  0.90466114  0.53012221  0.65420554    -0.11400
C253        C  0.85250884  0.56279706  0.66040904     0.10700
C254        C  0.79927202  0.53211350  0.33248535    -0.11400
H255        H  0.75777180  0.44737055  0.33923351     0.14700
H256        H  0.94616376  0.44668601  0.65079598     0.14700
H257        H  0.94686269  0.55211413  0.65089823     0.14700
H258        H  0.75823050  0.55519358  0.33829872     0.14700
C259        C  0.29384039  0.53162691  0.33250371    -0.11400
C260        C  0.24093557  0.56256617  0.65958927     0.10700
C261        C  0.18882882  0.53005764  0.65269362    -0.11400
C262        C  0.18907946  0.46913687  0.65261249    -0.11400
C263        C  0.24144725  0.43700894  0.65946437     0.10700
C264        C  0.29395233  0.46945762  0.33317761    -0.11400
H265        H  0.33509074  0.55458540  0.33767979     0.14700
H266        H  0.14673994  0.55217417  0.64901721     0.14700
H267        H  0.14715730  0.44672228  0.64893880     0.14700
H268        H  0.33526879  0.44679188  0.33881472     0.14700
C269        C  0.89465302  0.36012280  0.37237607    -0.11300
C270        C  0.92696066  0.35410802  0.40407714    -0.12900
C271        C  0.92374482  0.33864947  0.59588474    -0.11300
C272        C  0.89072512  0.34732422  0.62682291    -0.12900
C273        C  0.20205049  0.34665441  0.62671160    -0.11300
C274        C  0.16884617  0.33770236  0.59591620    -0.12900
C275        C  0.19837111  0.35919913  0.37276807    -0.11300
C276        C  0.16601423  0.35301842  0.40439474    -0.12900
C277        C  0.71988037  0.71728016  0.29667500    -0.11400
C278        C  0.71063520  0.75214409  0.66851421     0.10700
C279        C  0.73744574  0.73364526  0.70864772    -0.11400
C280        C  0.78104430  0.69033626  0.70853705    -0.11400
C281        C  0.79956954  0.66383774  0.66828578     0.10700
C282        C  0.76382028  0.67371906  0.29653899    -0.11400
H283        H  0.69670961  0.72681374  0.26589363     0.14700
H284        H  0.72745772  0.75477150  0.74013652     0.14700
H285        H  0.80231755  0.68030419  0.73996821     0.14700
H286        H  0.77332896  0.65075997  0.26567180     0.14700
C287        C  0.72055100  0.28183276  0.62939108    -0.11400
C288        C  0.70974919  0.24764877  0.66788301     0.10700
C289        C  0.73798246  0.26493916  0.37599737    -0.11400
C290        C  0.78107813  0.30867710  0.37627747    -0.11400
C291        C  0.79807678  0.33719536  0.33643802     0.10700
C292        C  0.76395965  0.32587584  0.62964795    -0.11400
H293        H  0.69899878  0.27106617  0.59816255     0.14700
H294        H  0.72932442  0.24235740  0.40711070     0.14700
H295        H  0.80329056  0.31723925  0.40755906     0.14700
H296        H  0.77477200  0.34782003  0.59858894     0.14700
C297        C  0.69383797  0.88100787  0.40240565    -0.11300
C298        C  0.68772838  0.84918119  0.37047045    -0.12900
C299        C  0.69897687  0.84502721  0.62670850    -0.11300
C300        C  0.70732739  0.87771648  0.59547997    -0.12900
C301        C  0.69927859  0.15474711  0.62591947    -0.11300
C302        C  0.70793811  0.12181456  0.59491060    -0.12900
C303        C  0.68828083  0.15083139  0.37106016    -0.11300
C304        C  0.69459446  0.11847807  0.40268099    -0.12900
C305        C  0.37283582  0.71695451  0.63029972    -0.11400
C306        C  0.38314085  0.75134976  0.66876989     0.10700
C307        C  0.35582691  0.73412856  0.37465654    -0.11400
C308        C  0.31218414  0.69097856  0.37446744    -0.11400
C309        C  0.29404844  0.66330095  0.66840270     0.10700
C310        C  0.32881341  0.67349395  0.63011273    -0.11400
H311        H  0.39526315  0.72721523  0.59933165     0.14700
H312        H  0.36510100  0.75577798  0.40604575     0.14700
H313        H  0.29028272  0.68163466  0.40574738     0.14700
H314        H  0.31854924  0.65135885  0.59902787     0.14700
C315        C  0.51615966  0.85733244  0.65418936    -0.11400
C316        C  0.48394972  0.80490745  0.66047712     0.10700
C317        C  0.51590465  0.75269980  0.33247249    -0.11400
C318        C  0.57808234  0.75283171  0.33244627    -0.11400
C319        C  0.60959059  0.80528011  0.66056375     0.10700
C320        C  0.57708142  0.85752633  0.65428949    -0.11400
H321        H  0.49376988  0.89931550  0.65079772     0.14700
H322        H  0.49317338  0.71160121  0.33878625     0.14700
H323        H  0.60100257  0.71182837  0.33875318     0.14700
H324        H  0.59921878  0.89964478  0.65097042     0.14700
C325        C  0.37275170  0.28207502  0.62944036    -0.11400
C326        C  0.38333281  0.24771961  0.66787853     0.10700
C327        C  0.35680758  0.26603822  0.70816688    -0.11400
C328        C  0.31352828  0.30961014  0.70833716    -0.11400
C329        C  0.29516830  0.33655157  0.66823464     0.10700
C330        C  0.32921688  0.32600344  0.62962414    -0.11400
H331        H  0.39455546  0.27149150  0.59828002     0.14700
H332        H  0.36663201  0.24451807  0.73953481     0.14700
H333        H  0.29220966  0.31932053  0.73980304     0.14700
H334        H  0.31951337  0.34966664  0.26739227     0.14700
C335        C  0.51607160  0.14176525  0.65256854    -0.11400
C336        C  0.48377993  0.19409439  0.65909896     0.10700
C337        C  0.51546131  0.24708852  0.33286428    -0.11400
C338        C  0.57764681  0.24714304  0.33274832    -0.11400
C339        C  0.60932123  0.19402357  0.65923091     0.10700
C340        C  0.57700521  0.14172527  0.65266420    -0.11400
H341        H  0.49376676  0.09975869  0.64908941     0.14700
H342        H  0.49263727  0.28834809  0.33833066     0.14700
H343        H  0.60042584  0.28843586  0.33814430     0.14700
H344        H  0.59928590  0.09969262  0.64923455     0.14700
C345        C  0.38562229  0.87673031  0.59546491    -0.11300
C346        C  0.39421974  0.84399747  0.62663433    -0.12900
C347        C  0.40585973  0.84827993  0.37086422    -0.11300
C348        C  0.39968001  0.88018928  0.40277347    -0.12900
C349        C  0.39368357  0.15475178  0.62592179    -0.11300
C350        C  0.38490507  0.12156017  0.59507218    -0.12900
C351        C  0.40510453  0.15083696  0.37168461    -0.11300
C352        C  0.39881820  0.11839920  0.40326778    -0.12900
O353        O  0.45070370  0.05870846  0.78801705    -0.69800
O354        O  0.45069539  0.94184854  0.87868946    -0.70100
O355        O  0.45041781  0.94087374  0.78870306    -0.69900
O356        O  0.45097838  0.05957365  0.87808913    -0.69900
O357        O  0.35505668  0.05923123  0.87882445    -0.69900
O358        O  0.35449546  0.94168272  0.78827321    -0.69900
O359        O  0.35476146  0.94130594  0.87844277    -0.69800
O360        O  0.35477783  0.05969074  0.78858758    -0.70000
V361        V  0.44881659  0.00027312  0.83336495     1.35200
V362        V  0.35661806  0.00049280  0.83351679     1.35200
C363        C  0.40277686  0.07832561  0.77254844     0.79400
C364        C  0.40278206  0.92244158  0.89430518     0.79500
C365        C  0.40242064  0.92195139  0.77285123     0.79300
C366        C  0.40317100  0.07848053  0.89426755     0.79300
C367        C  0.41682815  0.18933718  0.00255489    -0.00500
C368        C  0.41687349  0.81014050  0.66536922    -0.00500
O369        O  0.73893890  0.94149084  0.87869792    -0.69800
O370        O  0.73890855  0.05995521  0.78885158    -0.70100
O371        O  0.73870012  0.05949412  0.87909491    -0.69900
O372        O  0.73917246  0.94194621  0.78853114    -0.69900
O373        O  0.64325176  0.94113587  0.78901488    -0.69900
O374        O  0.64277851  0.05991517  0.87833070    -0.69900
O375        O  0.64298431  0.05894191  0.78828579    -0.69800
O376        O  0.64300678  0.94214159  0.87897670    -0.70000
V377        V  0.73709136  0.00073904  0.83379191     1.35200
V378        V  0.64489391  0.00055693  0.83365473     1.35200
C379        C  0.69090672  0.92259224  0.89451774     0.79400
C380        C  0.69088873  0.07852942  0.77277865     0.79500
C381        C  0.69059480  0.07887179  0.89445968     0.79300
C382        C  0.69122949  0.92223131  0.77312097     0.79300
C383        C  0.67647870  0.18993863  0.00251820    -0.00500
C384        C  0.67638828  0.81144630  0.00228058    -0.00500
O385        O  0.98793764  0.30818579  0.87868073    -0.69800
O386        O  0.10593317  0.30828989  0.78849545    -0.70100
O387        O  0.10579025  0.30863112  0.87873274    -0.69900
O388        O  0.98781797  0.30783909  0.78847774    -0.69900
O389        O  0.98756108  0.40374903  0.78833339    -0.69900
O390        O  0.10533071  0.40454018  0.87844989    -0.69900
O391        O  0.10551224  0.40420049  0.78836384    -0.69800
O392        O  0.98766514  0.40409998  0.87835780    -0.70000
V393        V  0.04687325  0.31008481  0.83355485     1.35200
V394        V  0.04653247  0.40226561  0.83334323     1.35200
C395        C  0.96879193  0.35619133  0.89435762     0.79400
C396        C  0.12503248  0.35629903  0.77278655     0.79500
C397        C  0.12450231  0.35676257  0.89449726     0.79300
C398        C  0.96832640  0.35571036  0.77279145     0.79300
C399        C  0.23628411  0.37005577  0.66495367    -0.00500
C400        C  0.85661842  0.37017100  0.66530231    -0.00500
O401        O  0.10613598  0.69243134  0.87918375    -0.69800
O402        O  0.98817353  0.69273231  0.78888548    -0.70100
O403        O  0.98800208  0.69290359  0.87908580    -0.69900
O404        O  0.10615099  0.69223928  0.78894398    -0.69900
O405        O  0.10558118  0.59633128  0.78909337    -0.69900
O406        O  0.98786340  0.59698933  0.87914474    -0.69900
O407        O  0.98780760  0.59682350  0.78917339    -0.69800
O408        O  0.10573025  0.59652004  0.87912352    -0.70000
V409        V  0.04712002  0.69074135  0.83405065     1.35200
V410        V  0.04676241  0.59856091  0.83415610     1.35200
C411        C  0.12522561  0.64435637  0.89480990     0.79400
C412        C  0.96885106  0.64476036  0.77325802     0.79500
C413        C  0.96857498  0.64496883  0.89471352     0.79300
C414        C  0.12492959  0.64411547  0.77319742     0.79300
C415        C  0.23695770  0.62991225  0.00235927    -0.00500
C416        C  0.85667959  0.63008023  0.00199625    -0.00500
C417        C  0.92663663  0.64458779  0.93053042    -0.11300
C418        C  0.89392195  0.64041670  0.96213523    -0.12900
C419        C  0.89560926  0.64038521  0.70484840    -0.11300
C420        C  0.92767063  0.64435361  0.73688591    -0.12900
C421        C  0.19957997  0.63974251  0.96247676    -0.11300
C422        C  0.16697388  0.64372248  0.93077799    -0.12900
C423        C  0.16588563  0.64341253  0.73668755    -0.11300
C424        C  0.19780650  0.63953642  0.70456662    -0.12900
C425        C  0.79865592  0.46926061  0.66518875    -0.11400
C426        C  0.85167508  0.43721984  0.66033826     0.10700
C427        C  0.90499517  0.47018122  0.01374406    -0.11400
C428        C  0.90457323  0.53112654  0.01347961    -0.11400
C429        C  0.85189819  0.56305987  0.00749599     0.10700
C430        C  0.79906911  0.53143410  0.66521820    -0.11400
H431        H  0.75723835  0.44666974  0.67054512     0.14700
H432        H  0.94723612  0.44817660  0.01678535     0.14700
H433        H  0.94650972  0.55373387  0.01631334     0.14700
H434        H  0.75792972  0.55454501  0.67055123     0.14700
C435        C  0.29420228  0.53105486  0.66488538    -0.11400
C436        C  0.24195790  0.56294702  0.00813255     0.10700
C437        C  0.18940310  0.53103042  0.01467744    -0.11400
C438        C  0.18895230  0.47011117  0.01490859    -0.11400
C439        C  0.24100172  0.43734190  0.00846700     0.10700
C440        C  0.29445446  0.46891010  0.66482042    -0.11400
H441        H  0.33528310  0.55401393  0.67078693     0.14700
H442        H  0.14749965  0.55362128  0.01787577     0.14700
H443        H  0.14673471  0.44817055  0.01831154     0.14700
H444        H  0.33570470  0.44623580  0.67072044     0.14700
C445        C  0.89378471  0.35960901  0.70520039    -0.11300
C446        C  0.92641869  0.35585168  0.73690758    -0.12900
C447        C  0.92798161  0.35665421  0.93091575    -0.11300
C448        C  0.89612359  0.36048444  0.96305233    -0.12900
C449        C  0.19699213  0.36101376  0.96339710    -0.11300
C450        C  0.16514600  0.35744182  0.93120836    -0.12900
C451        C  0.19920712  0.36023124  0.70498218    -0.11300
C452        C  0.16675934  0.35669177  0.73680165    -0.12900
C453        C  0.72169046  0.71841707  0.62982134    -0.11400
C454        C  0.70977163  0.75252463  0.99876249     0.10700
C455        C  0.72010679  0.71808250  0.03720052    -0.11400
C456        C  0.76354613  0.67406476  0.03710671    -0.11400
C457        C  0.79771984  0.66344949  0.99857374     0.10700
C458        C  0.76561442  0.67485410  0.62970145    -0.11400
H459        H  0.69984488  0.72918875  0.59871054     0.14700
H460        H  0.69818900  0.72868560  0.06831502     0.14700
H461        H  0.77404109  0.65196172  0.06817340     0.14700
H462        H  0.77637592  0.65320985  0.59851731     0.14700
C463        C  0.73915885  0.26523305  0.95895791    -0.11400
C464        C  0.71059316  0.24848130  0.99883076     0.10700
C465        C  0.73595819  0.26619623  0.70822791    -0.11400
C466        C  0.77910277  0.30989586  0.70847216    -0.11400
C467        C  0.79768088  0.33671894  0.66838801     0.10700
C468        C  0.78295026  0.30824872  0.95908629    -0.11400
H469        H  0.73049274  0.24294994  0.92770507     0.14700
H470        H  0.72594999  0.24479298  0.73960708     0.14700
H471        H  0.80018112  0.31981771  0.73999782     0.14700
H472        H  0.80544416  0.31674644  0.92789550     0.14700
C473        C  0.69091630  0.88055584  0.73707533    -0.11300
C474        C  0.68709277  0.84812524  0.70524663    -0.12900
C475        C  0.68638124  0.84864246  0.96236458    -0.11300
C476        C  0.69038608  0.88103724  0.93056718    -0.12900
C477        C  0.68613742  0.15237192  0.96269127    -0.11300
C478        C  0.68992868  0.12014529  0.93075082    -0.12900
C479        C  0.68652523  0.15155998  0.70432091    -0.11300
C480        C  0.69043016  0.11959475  0.73638627    -0.12900
C481        C  0.35620290  0.73499257  0.95873849    -0.11400
C482        C  0.38338929  0.75293948  0.99886260     0.10700
C483        C  0.35561335  0.73351576  0.70879389    -0.11400
C484        C  0.31190890  0.69035265  0.70861269    -0.11400
C485        C  0.29575566  0.66352441  0.99875829     0.10700
C486        C  0.31327915  0.69110319  0.95868093    -0.11400
H487        H  0.36527271  0.75694890  0.92741311     0.14700
H488        H  0.36500548  0.75513480  0.74019519     0.14700
H489        H  0.29002363  0.68095800  0.73990819     0.14700
H490        H  0.29152782  0.68168373  0.92733249     0.14700
C491        C  0.51622675  0.85878577  0.01435811    -0.11400
C492        C  0.48385829  0.80647791  0.00796256     0.10700
C493        C  0.51582042  0.75178375  0.66535522    -0.11400
C494        C  0.57802465  0.75196734  0.66537680    -0.11400
C495        C  0.60942866  0.80632628  0.00785413     0.10700
C496        C  0.57719712  0.85871679  0.01428444    -0.11400
H497        H  0.49395410  0.90084360  0.01764647     0.14700
H498        H  0.49307751  0.71046011  0.67073205     0.14700
H499        H  0.60100925  0.71076582  0.67074333     0.14700
H500        H  0.59957059  0.90072070  0.01752371     0.14700
C501        C  0.35284041  0.26361836  0.95901082    -0.11400
C502        C  0.38241633  0.24770740  0.99867181     0.10700
C503        C  0.37346236  0.28354585  0.03658101    -0.11400
C504        C  0.32943694  0.32707255  0.03675628    -0.11400
C505        C  0.29326655  0.33594503  0.99901558     0.10700
C506        C  0.30919974  0.30678173  0.95918117    -0.11400
H507        H  0.36060041  0.24063575  0.92791846     0.14700
H508        H  0.39714870  0.27449954  0.06723364     0.14700
H509        H  0.32040339  0.35050137  0.06751957     0.14700
H510        H  0.31856787  0.34808525  0.59858626     0.14700
C511        C  0.51629852  0.14289739  0.01465390    -0.11400
C512        C  0.48380915  0.19510460  0.00810886     0.10700
C513        C  0.51550194  0.24725013  0.66414336    -0.11400
C514        C  0.57763297  0.24721749  0.66419613    -0.11400
C515        C  0.60948213  0.19537757  0.00808021     0.10700
C516        C  0.57723277  0.14302317  0.01460379    -0.11400
H517        H  0.49412979  0.10079914  0.01801967     0.14700
H518        H  0.49270927  0.28849623  0.66974712     0.14700
H519        H  0.60044690  0.28844321  0.66980956     0.14700
H520        H  0.59958565  0.10100962  0.01792007     0.14700
C521        C  0.40324084  0.88116612  0.93053377    -0.11300
C522        C  0.40706789  0.84898635  0.96246827    -0.12900
C523        C  0.40643929  0.84763132  0.70512099    -0.11300
C524        C  0.40267921  0.88019771  0.73686721    -0.12900
C525        C  0.40743572  0.15155093  0.96279388    -0.11300
C526        C  0.40382845  0.11948184  0.93074312    -0.12900
C527        C  0.40679189  0.15164827  0.70427493    -0.11300
C528        C  0.40313790  0.11954648  0.73626947    -0.12900
loop_ 
_geom_bond_atom_site_label_1 
_geom_bond_atom_site_label_2 
_geom_bond_distance 
_geom_bond_site_symmetry_2 
_ccdc_geom_bond_type 
O1            V9   1.896       .  S
O1           C11   1.262       .  A
O2            V9   1.896   1_565  S
O2           C12   1.262       .  A
O3            V9   1.896   1_565  S
O3           C13   1.262       .  A
O4            V9   1.896       .  S
O4           C14   1.262       .  A
O5           V10   1.907       .  S
O5           C14   1.264       .  A
O6           V10   1.907   1_565  S
O6           C13   1.264       .  A
O7           V10   1.907   1_565  S
O7           C12   1.264       .  A
O8           V10   1.907       .  S
O8           C11   1.264       .  A
V9           V10   2.090       .  T
C11         C176   1.436       .  S
C12         C169   1.436       .  S
C13         C172   1.436       .  S
C14         C174   1.437       .  S
C15         C150   1.542       .  S
C15         C160   1.534       .  S
C15         C173   1.482       .  S
C15         C351   1.481       .  S
C16         C482   1.540   1_554  S
C16         C492   1.532       .  S
C16         C171   1.481       .  S
C16         C522   1.480   1_554  S
O17          V25   1.907   1_565  S
O17          C27   1.264       .  A
O18          V25   1.906       .  S
O18          C28   1.264       .  A
O19          V25   1.908       .  S
O19          C29   1.264       .  A
O20          V25   1.907   1_565  S
O20          C30   1.264       .  A
O21          V26   1.896   1_565  S
O21          C30   1.262       .  A
O22          V26   1.897       .  S
O22          C29   1.262       .  A
O23          V26   1.896       .  S
O23          C28   1.262       .  A
O24          V26   1.896   1_565  S
O24          C27   1.262       .  A
V25          V26   2.090       .  T
C27         C124   1.436       .  S
C28         C128   1.436       .  S
C29         C126   1.438       .  S
C30         C121   1.436       .  S
C31         C112   1.542       .  S
C31         C163   1.534       .  S
C31         C125   1.482       .  S
C31         C303   1.481       .  S
C32         C102   1.539       .  S
C32         C143   1.533       .  S
C32         C123   1.481       .  S
C32         C298   1.481       .  S
O33          V41   1.908   1_655  S
O33          C43   1.264       .  A
O34          V41   1.908       .  S
O34          C44   1.264       .  A
O35          V41   1.908       .  S
O35          C45   1.264       .  A
O36          V41   1.908   1_655  S
O36          C46   1.264       .  A
O37          V42   1.897   1_655  S
O37          C46   1.262       .  A
O38          V42   1.897       .  S
O38          C45   1.262       .  A
O39          V42   1.897       .  S
O39          C44   1.262       .  A
O40          V42   1.897   1_655  S
O40          C43   1.262       .  A
V41          V42   2.090       .  T
C43          C95   1.437       .  S
C44         C100   1.438       .  S
C45          C98   1.437       .  S
C46          C94   1.438       .  S
C47         C439   1.533       .  S
C47         C505   1.541   1_554  S
C47          C99   1.483       .  S
C47         C449   1.483   1_554  S
C48          C74   1.533       .  S
C48         C115   1.541   1_554  S
C48          C93   1.482       .  S
C48         C448   1.482   1_554  S
O49          V57   1.907       .  S
O49          C59   1.264       .  A
O50          V57   1.907   1_655  S
O50          C60   1.264       .  A
O51          V57   1.907   1_655  S
O51          C61   1.264       .  A
O52          V57   1.906       .  S
O52          C62   1.264       .  A
O53          V58   1.895       .  S
O53          C62   1.262       .  A
O54          V58   1.896   1_655  S
O54          C61   1.262       .  A
O55          V58   1.895   1_655  S
O55          C60   1.262       .  A
O56          V58   1.895       .  S
O56          C59   1.262       .  A
V57          V58   2.091       .  T
C59          C70   1.436       .  S
C60          C68   1.435       .  S
C61          C65   1.436       .  S
C62          C71   1.435       .  S
C63          C84   1.533       .  S
C63         C133   1.540       .  S
C63          C69   1.482       .  S
C63         C248   1.481       .  S
C64          C77   1.533       .  S
C64         C105   1.539       .  S
C64          C66   1.481       .  S
C64         C243   1.481       .  S
C65          C66   1.208       .  T
C67         C416   1.480       .  S
C67          C68   1.207       .  T
C69          C70   1.208       .  T
C71          C72   1.207       .  T
C72         C415   1.480       .  S
C73          C74   1.413       .  A
C73          C78   1.410       .  A
C73          H79   1.082   1_554  S
C74         C427   1.408       .  A
C75          C76   1.383       .  A
C75         C250   1.409       .  A
C75          H80   1.084       .  S
C76          C77   1.408       .  A
C76          H81   1.084       .  S
C77         C254   1.413       .  A
C78         C429   1.412       .  A
C78          H82   1.082   1_554  S
C83          C88   1.411       .  A
C83         C436   1.413       .  A
C83          H89   1.082   1_554  S
C84          C85   1.408       .  A
C84         C259   1.413       .  A
C85          C86   1.384       .  A
C85          H90   1.084       .  S
C86          C87   1.409       .  A
C86          H91   1.084       .  S
C87         C223   1.534       .  S
C87         C264   1.412       .  A
C88         C439   1.413       .  A
C88          H92   1.082   1_554  S
C93          C94   1.208       .  T
C95          C96   1.208       .  T
C96         C224   1.482       .  S
C97         C223   1.482       .  S
C97          C98   1.208       .  T
C99         C100   1.209       .  T
C101        C106   1.393       .  A
C101        C454   1.410       .  A
C101        H107   1.082       .  S
C102        C103   1.410       .  A
C102        C277   1.411       .  A
C103        C104   1.391       .  A
C103        H108   1.081       .  S
C104        C105   1.411       .  A
C104        H109   1.081       .  S
C105        C282   1.411       .  A
C106        C457   1.410       .  A
C106        H110   1.082       .  S
C111        C112   1.411       .  A
C111        C116   1.404       .  A
C111        H117   1.083       .  S
C112        C289   1.411       .  A
C113        C114   1.404       .  A
C113        C464   1.411   1_554  A
C113        H118   1.083       .  S
C114        C115   1.411   1_554  A
C114        H119   1.083       .  S
C115        C468   1.411       .  A
C116        C291   1.411       .  A
C116        H120   1.083       .  S
C121        C122   1.207       .  T
C122        C384   1.481       .  S
C123        C124   1.207       .  T
C125        C126   1.208       .  T
C127        C383   1.481       .  S
C127        C128   1.207       .  T
C129        C130   1.411       .  A
C129        C134   1.403       .  A
C129        H135   1.083       .  S
C130        C192   1.540       .  S
C130        C307   1.410       .  A
C131        C132   1.403       .  A
C131        C482   1.411   1_554  A
C131        H136   1.083       .  S
C132        C485   1.411   1_554  A
C132        H137   1.083       .  S
C133        C134   1.411       .  A
C133        C308   1.411       .  A
C134        H138   1.083       .  S
C139        C140   1.408       .  A
C139        C144   1.383       .  A
C139        H145   1.084       .  S
C140        C192   1.533       .  S
C140        C317   1.413       .  A
C141        C142   1.409       .  A
C141        C492   1.412       .  A
C141        H146   1.082   1_554  S
C142        C495   1.412       .  A
C142        H147   1.082   1_554  S
C143        C144   1.408       .  A
C143        C318   1.413       .  A
C144        H148   1.084       .  S
C149        C150   1.411       .  A
C149        C154   1.404       .  A
C149        H155   1.083       .  S
C150        C151   1.411       .  A
C151        C152   1.393       .  A
C151        H156   1.081       .  S
C152        C153   1.411       .  A
C152        H157   1.081       .  S
C153        C223   1.542       .  S
C153        C154   1.411       .  A
C154        H334   1.083       .  S
H158        C506   1.081       .  S
C159        C160   1.408       .  A
C159        C164   1.384       .  A
C159        H165   1.084       .  S
C160        C337   1.413       .  A
C161        C162   1.411       .  A
C161        C512   1.413       .  A
C161        H166   1.082   1_554  S
C162        C515   1.413       .  A
C162        H167   1.082   1_554  S
C163        C164   1.408       .  A
C163        C338   1.413       .  A
C164        H168   1.084       .  S
C169        C170   1.208       .  T
C170        C192   1.482       .  S
C171        C172   1.208       .  T
C173        C174   1.208       .  T
C175        C367   1.482       .  S
C175        C176   1.208       .  T
O177        V185   1.896   1_545  S
O177        C187   1.262       .  A
O178        V185   1.897       .  S
O178        C188   1.262       .  A
O179        V185   1.897       .  S
O179        C189   1.262       .  A
O180        V185   1.896   1_545  S
O180        C190   1.262       .  A
O181        V186   1.908   1_545  S
O181        C190   1.264       .  A
O182        V186   1.904       .  S
O182        C189   1.264       .  A
O183        V186   1.908       .  S
O183        C188   1.264       .  A
O184        V186   1.904   1_545  S
O184        C187   1.264       .  A
V185        V186   2.090       .  T
C187        C352   1.434       .  S
C188        C345   1.437       .  S
C189        C348   1.435       .  S
C190        C350   1.437       .  S
C191        C326   1.540       .  S
C191        C336   1.532       .  S
C191        C349   1.483       .  S
C191        C527   1.480       .  S
C192        C347   1.482       .  S
O193        V201   1.907       .  S
O193        C203   1.264       .  A
O194        V201   1.903   1_545  S
O194        C204   1.264       .  A
O195        V201   1.907   1_545  S
O195        C205   1.264       .  A
O196        V201   1.903       .  S
O196        C206   1.263       .  A
O197        V202   1.896       .  S
O197        C206   1.262       .  A
O198        V202   1.896   1_545  S
O198        C205   1.262       .  A
O199        V202   1.896   1_545  S
O199        C204   1.262       .  A
O200        V202   1.897       .  S
O200        C203   1.262       .  A
V201        V202   2.091       .  T
C203        C300   1.437       .  S
C204        C304   1.433       .  S
C205        C302   1.436       .  S
C206        C297   1.433       .  S
C207        C288   1.540       .  S
C207        C339   1.531       .  S
C207        C301   1.482       .  S
C207        C479   1.481       .  S
C208        C278   1.541       .  S
C208        C319   1.533       .  S
C208        C474   1.482       .  S
C208        C299   1.483       .  S
O209        V217   1.907   1_655  S
O209        C219   1.264       .  A
O210        V217   1.903       .  S
O210        C220   1.263       .  A
O211        V217   1.907       .  S
O211        C221   1.264       .  A
O212        V217   1.904   1_655  S
O212        C222   1.264       .  A
O213        V218   1.897   1_655  S
O213        C222   1.262       .  A
O214        V218   1.896       .  S
O214        C221   1.262       .  A
O215        V218   1.896       .  S
O215        C220   1.262       .  A
O216        V218   1.896   1_655  S
O216        C219   1.262       .  A
V217        V218   2.091       .  T
C219        C271   1.436       .  S
C220        C276   1.433       .  S
C221        C274   1.436       .  S
C222        C270   1.434       .  S
C223        C275   1.481       .  S
C224        C250   1.533       .  S
C224        C291   1.541       .  S
C224        C269   1.482       .  S
O225        V233   1.908       .  S
O225        C235   1.264       .  A
O226        V233   1.904   1_655  S
O226        C236   1.264       .  A
O227        V233   1.907   1_655  S
O227        C237   1.264       .  A
O228        V233   1.904       .  S
O228        C238   1.264       .  A
O229        V234   1.896       .  S
O229        C238   1.262       .  A
O230        V234   1.898   1_655  S
O230        C237   1.263       .  A
O231        V234   1.896   1_655  S
O231        C236   1.262       .  A
O232        V234   1.897       .  S
O232        C235   1.263       .  A
V233        V234   2.090       .  T
C235        C246   1.438       .  S
C236        C244   1.434       .  S
C237        C241   1.438       .  S
C238        C247   1.434       .  S
C239        C260   1.532       .  S
C239        C309   1.541       .  S
C239        C245   1.483       .  S
C239        C424   1.482       .  S
C240        C253   1.532       .  S
C240        C281   1.541       .  S
C240        C242   1.484       .  S
C240        C419   1.482       .  S
C241        C242   1.209       .  T
C243        C244   1.206       .  T
C245        C246   1.209       .  T
C247        C248   1.206       .  T
C249        C250   1.412       .  A
C249        C254   1.410       .  A
C249        H255   1.082       .  S
C251        C426   1.408       .  A
C251        C252   1.381       .  A
C251        H256   1.084       .  S
C252        C253   1.408       .  A
C252        H257   1.084       .  S
C253        C430   1.413       .  A
C254        H258   1.082       .  S
C259        C264   1.410       .  A
C259        H265   1.082       .  S
C260        C435   1.412       .  A
C260        C261   1.408       .  A
C261        C262   1.382       .  A
C261        H266   1.084       .  S
C262        C263   1.408       .  A
C262        H267   1.084       .  S
C263        C399   1.532       .  S
C263        C440   1.412       .  A
C264        H268   1.082       .  S
C269        C270   1.207       .  T
C271        C272   1.207       .  T
C272        C400   1.481       .  S
C273        C399   1.482       .  S
C273        C274   1.208       .  T
C275        C276   1.206       .  T
C277        C282   1.403       .  A
C277        H283   1.083       .  S
C278        C453   1.411       .  A
C278        C279   1.411       .  A
C279        C280   1.394       .  A
C279        H284   1.082       .  S
C280        C281   1.411       .  A
C280        H285   1.082       .  S
C281        C458   1.411       .  A
C282        H286   1.083       .  S
C287        C288   1.411       .  A
C287        C292   1.403       .  A
C287        H293   1.083       .  S
C288        C465   1.411       .  A
C289        C290   1.393       .  A
C289        H294   1.081       .  S
C290        C291   1.411       .  A
C290        H295   1.081       .  S
C292        C467   1.411       .  A
C292        H296   1.083       .  S
C297        C298   1.206       .  T
C299        C300   1.208       .  T
C301        C302   1.208       .  T
C303        C304   1.206       .  T
C305        C306   1.411       .  A
C305        C310   1.403       .  A
C305        H311   1.083       .  S
C306        C368   1.541       .  S
C306        C483   1.411       .  A
C307        C308   1.392       .  A
C307        H312   1.081       .  S
C308        H313   1.081       .  S
C309        C484   1.411       .  A
C309        C310   1.411       .  A
C310        H314   1.083       .  S
C315        C316   1.408       .  A
C315        C320   1.382       .  A
C315        H321   1.084       .  S
C316        C368   1.533       .  S
C316        C493   1.413       .  A
C317        C318   1.410       .  A
C317        H322   1.082       .  S
C318        H323   1.082       .  S
C319        C494   1.413       .  A
C319        C320   1.408       .  A
C320        H324   1.084       .  S
C325        C326   1.410       .  A
C325        C330   1.403       .  A
C325        H331   1.083       .  S
C326        C327   1.411       .  A
C327        C328   1.393       .  A
C327        H332   1.082       .  S
C328        C329   1.410       .  A
C328        H333   1.082       .  S
C329        C399   1.540       .  S
C329        C330   1.411       .  A
C330        H510   1.083       .  S
C335        C336   1.408       .  A
C335        C340   1.382       .  A
C335        H341   1.084       .  S
C336        C513   1.412       .  A
C337        C338   1.410       .  A
C337        H342   1.082       .  S
C338        H343   1.082       .  S
C339        C514   1.412       .  A
C339        C340   1.408       .  A
C340        H344   1.084       .  S
C345        C346   1.208       .  T
C346        C368   1.483       .  S
C347        C348   1.207       .  T
C349        C350   1.208       .  T
C351        C352   1.207       .  T
O353        V361   1.898       .  S
O353        C363   1.262       .  A
O354        V361   1.897   1_565  S
O354        C364   1.262       .  A
O355        V361   1.899   1_565  S
O355        C365   1.263       .  A
O356        V361   1.899       .  S
O356        C366   1.263       .  A
O357        V362   1.902       .  S
O357        C366   1.263       .  A
O358        V362   1.902   1_565  S
O358        C365   1.263       .  A
O359        V362   1.901   1_565  S
O359        C364   1.263       .  A
O360        V362   1.901       .  S
O360        C363   1.263       .  A
V361        V362   2.091       .  T
C363        C528   1.433       .  S
C364        C521   1.433       .  S
C365        C524   1.435       .  S
C366        C526   1.435       .  S
C367        C502   1.541   1_554  S
C367        C512   1.534       .  S
C367        C525   1.482   1_554  S
C368        C523   1.482       .  S
O369        V377   1.901   1_565  S
O369        C379   1.263       .  A
O370        V377   1.902       .  S
O370        C380   1.263       .  A
O371        V377   1.902       .  S
O371        C381   1.263       .  A
O372        V377   1.902   1_565  S
O372        C382   1.263       .  A
O373        V378   1.899   1_565  S
O373        C382   1.263       .  A
O374        V378   1.899       .  S
O374        C381   1.263       .  A
O375        V378   1.898       .  S
O375        C380   1.262       .  A
O376        V378   1.897   1_565  S
O376        C379   1.262       .  A
V377        V378   2.091       .  T
C379        C476   1.433       .  S
C380        C480   1.434       .  S
C381        C478   1.435       .  S
C382        C473   1.435       .  S
C383        C464   1.541   1_554  S
C383        C515   1.533       .  S
C383        C477   1.482   1_554  S
C384        C454   1.540   1_554  S
C384        C495   1.532       .  S
C384        C475   1.480   1_554  S
O385        V393   1.901   1_655  S
O385        C395   1.263       .  A
O386        V393   1.902       .  S
O386        C396   1.263       .  A
O387        V393   1.902       .  S
O387        C397   1.263       .  A
O388        V393   1.902   1_655  S
O388        C398   1.263       .  A
O389        V394   1.899   1_655  S
O389        C398   1.263       .  A
O390        V394   1.899       .  S
O390        C397   1.263       .  A
O391        V394   1.899       .  S
O391        C396   1.263       .  A
O392        V394   1.898   1_655  S
O392        C395   1.262       .  A
V393        V394   2.091       .  T
C395        C447   1.434       .  S
C396        C452   1.434       .  S
C397        C450   1.435       .  S
C398        C446   1.434       .  S
C399        C451   1.481       .  S
C400        C426   1.532       .  S
C400        C467   1.540       .  S
C400        C445   1.482       .  S
O401        V409   1.902       .  S
O401        C411   1.263       .  A
O402        V409   1.902   1_655  S
O402        C412   1.263       .  A
O403        V409   1.902   1_655  S
O403        C413   1.263       .  A
O404        V409   1.902       .  S
O404        C414   1.263       .  A
O405        V410   1.898       .  S
O405        C414   1.262       .  A
O406        V410   1.898   1_655  S
O406        C413   1.262       .  A
O407        V410   1.898   1_655  S
O407        C412   1.263       .  A
O408        V410   1.898       .  S
O408        C411   1.262       .  A
V409        V410   2.091       .  T
C411        C422   1.434       .  S
C412        C420   1.435       .  S
C413        C417   1.434       .  S
C414        C423   1.435       .  S
C415        C436   1.533       .  S
C415        C485   1.540   1_554  S
C415        C421   1.481   1_554  S
C416        C429   1.533       .  S
C416        C457   1.540   1_554  S
C416        C418   1.481   1_554  S
C417        C418   1.206       .  T
C419        C420   1.207       .  T
C421        C422   1.207       .  T
C423        C424   1.207       .  T
C425        C426   1.412       .  A
C425        C430   1.410       .  A
C425        H431   1.082       .  S
C427        C428   1.382       .  A
C427        H432   1.084       .  S
C428        C429   1.408       .  A
C428        H433   1.084       .  S
C430        H434   1.082       .  S
C435        C440   1.410       .  A
C435        H441   1.082       .  S
C436        C437   1.408       .  A
C437        C438   1.382       .  A
C437        H442   1.084       .  S
C438        C439   1.408       .  A
C438        H443   1.084       .  S
C440        H444   1.082       .  S
C445        C446   1.207       .  T
C447        C448   1.207       .  T
C449        C450   1.207       .  T
C451        C452   1.207       .  T
C453        C458   1.403       .  A
C453        H459   1.083       .  S
C454        C455   1.411   1_556  A
C455        C456   1.403       .  A
C455        H460   1.083       .  S
C456        C457   1.411   1_554  A
C456        H461   1.083       .  S
C458        H462   1.083       .  S
C463        C464   1.411       .  A
C463        C468   1.392       .  A
C463        H469   1.082       .  S
C465        C466   1.393       .  A
C465        H470   1.082       .  S
C466        C467   1.410       .  A
C466        H471   1.082       .  S
C468        H472   1.082       .  S
C473        C474   1.207       .  T
C475        C476   1.206       .  T
C477        C478   1.207       .  T
C479        C480   1.206       .  T
C481        C482   1.410       .  A
C481        C486   1.392       .  A
C481        H487   1.082       .  S
C483        C484   1.393       .  A
C483        H488   1.082       .  S
C484        H489   1.082       .  S
C485        C486   1.410       .  A
C486        H490   1.082       .  S
C491        C492   1.408       .  A
C491        C496   1.383       .  A
C491        H497   1.084       .  S
C493        C494   1.411       .  A
C493        H498   1.082       .  S
C494        H499   1.082       .  S
C495        C496   1.408       .  A
C496        H500   1.084       .  S
C501        C502   1.411       .  A
C501        C506   1.392       .  A
C501        H507   1.082       .  S
C502        C503   1.411   1_556  A
C503        C504   1.404       .  A
C503        H508   1.083       .  S
C504        C505   1.411   1_554  A
C504        H509   1.083       .  S
C505        C506   1.411       .  A
C511        C512   1.408       .  A
C511        C516   1.382       .  A
C511        H517   1.084       .  S
C513        C514   1.409       .  A
C513        H518   1.082       .  S
C514        H519   1.082       .  S
C515        C516   1.408       .  A
C516        H520   1.084       .  S
C521        C522   1.206       .  T
C523        C524   1.207       .  T
C525        C526   1.207       .  T
C527        C528   1.206       .  T
