geometry optimzed in LAMMPS
_audit_creation_date              2020-11-30 
_audit_creation_method            'lammps2cif' 
_symmetry_space_group_name_H-M    'P1' 
_symmetry_Int_Tables_number       1 
_symmetry_cell_setting            triclinic 
loop_ 
_symmetry_equiv_pos_as_xyz 
  x,y,z 
_cell_length_a                    37.300666362608894 
_cell_length_b                    36.4350195245707 
_cell_length_c                    48.51906452788729 
_cell_angle_alpha                 90.96839639053945 
_cell_angle_beta                  88.3696313284804 
_cell_angle_gamma                 119.78436990570616 
loop_ 
_atom_site_label 
_atom_site_type_symbol 
_atom_site_fract_x 
_atom_site_fract_y 
_atom_site_fract_z 
_atom_site_charge 
C1          C  0.32150431  0.16452451  0.99803180    -0.02890
C2          C  0.33500391  0.16770019  0.12346279    -0.02890
C3          C  0.16587529  0.34389174  0.38073042    -0.02890
C4          C  0.17249947  0.34717940  0.25610804    -0.02890
N5          N  0.05179875  0.09951439  0.41456755    -0.06520
N6          N  0.06858401  0.13346179  0.39880921    -0.58640
N7          N  0.08624803  0.06939152  0.46690533    -0.06200
N8          N  0.11830879  0.08324065  0.48304889    -0.60770
N9          N  0.09526619  0.05909776  0.44264114    -0.05800
N10         N  0.13323231  0.06546995  0.44181889    -0.58620
N11         N  0.04157306  0.10874331  0.43882591    -0.05480
N12         N  0.05090079  0.14867524  0.43984861    -0.61120
C13         C  0.06765406  0.16397789  0.41479821     0.95650
C14         C  0.14725588  0.08018942  0.46722062     0.95430
N15         N  0.47773173  0.48960042  0.01207463    -0.06710
N16         N  0.47131481  0.47484184  0.03760337    -0.59220
N17         N  0.46577396  0.06359483  0.47995411    -0.04830
N18         N  0.45622099  0.09403759  0.48094866    -0.60470
N19         N  0.43197969  0.02648551  0.48080353    -0.06740
N20         N  0.39900916  0.03088591  0.48234580    -0.59490
N21         N  0.01191959  0.02651999  0.01079267    -0.04470
N22         N  0.02927980  0.03740866  0.03522797    -0.60560
Mn23       Mn  0.02683520  0.06779639  0.47457514     1.18440
C24         C  0.00400585  0.00470332  0.05178746     0.97730
C25         C  0.41424984  0.07311713  0.48263021     0.98400
N26         N  0.05468850  0.48005149  0.40452847    -0.06760
N27         N  0.08677459  0.47399338  0.40311734    -0.63070
N28         N  0.47730634  0.48279358  0.37342663    -0.05560
N29         N  0.46284997  0.47282259  0.34808750    -0.63740
N30         N  0.01152875  0.01975516  0.37325671    -0.06270
N31         N  0.02081065  0.03544812  0.34801937    -0.63330
N32         N  0.02021459  0.44353372  0.40536134    -0.05160
N33         N  0.02801687  0.41195303  0.40453603    -0.64020
Mn34       Mn  0.05380379  0.04018399  0.40820005     1.10660
C35         C  0.06968586  0.43130531  0.40331150     0.98960
C36         C  0.49001013  0.00627880  0.33248849     0.99030
N37         N  0.39107493  0.44726654  0.44188218    -0.06270
N38         N  0.35169600  0.43680869  0.44265652    -0.61650
N39         N  0.44508363  0.39899978  0.44638650    -0.05590
N40         N  0.43606122  0.35910838  0.44599247    -0.58380
N41         N  0.43650500  0.40911840  0.47091807    -0.06900
N42         N  0.42136327  0.37618636  0.48753731    -0.61210
N43         N  0.40124726  0.43851525  0.41742033    -0.05890
N44         N  0.36901879  0.42175282  0.40129067    -0.58400
Mn45       Mn  0.43374844  0.46750862  0.47701743     1.20190
Mn46       Mn  0.46036991  0.44038799  0.41013004     1.10090
Cl47       Cl  0.49358982  0.00398942  0.44244646    -0.86370
C48         C  0.33830414  0.42089608  0.41720726     0.95960
C49         C  0.42221892  0.34554807  0.47191266     0.95760
N50         N  0.44314865  0.03439742  0.15705686    -0.06520
N51         N  0.41156815  0.04094373  0.15526819    -0.58640
N52         N  0.01972985  0.02999041  0.12329314    -0.06200
N53         N  0.03400211  0.03940356  0.09746506    -0.60770
N54         N  0.48515315  0.49326879  0.12378925    -0.05800
N55         N  0.47559596  0.47720427  0.09868538    -0.58620
N56         N  0.47789486  0.07051697  0.15751294    -0.05480
N57         N  0.47069447  0.10232977  0.15580909    -0.61120
C58         C  0.42909786  0.08361029  0.15464662     0.95650
C59         C  0.00641248  0.00580637  0.08237772     0.95430
N60         N  0.10562979  0.06401315  0.18950285    -0.06710
N61         N  0.14533230  0.07563942  0.18959915    -0.59220
N62         N  0.05215388  0.11314393  0.19829881    -0.04830
N63         N  0.06031151  0.15283101  0.20000515    -0.60470
N64         N  0.06058648  0.10160057  0.22175092    -0.06740
N65         N  0.07493665  0.13321366  0.23957762    -0.59490
N66         N  0.09630771  0.07415738  0.16585441    -0.04470
N67         N  0.12938805  0.09267627  0.14950025    -0.60560
Mn68       Mn  0.03713658  0.07258395  0.16070322     1.18440
C69         C  0.15965193  0.09315900  0.16445731     0.97730
C70         C  0.07372331  0.16468115  0.22604156     0.98400
N71         N  0.43999772  0.41284548  0.16395780    -0.06760
N72         N  0.41986349  0.37894884  0.14834846    -0.63070
N73         N  0.40618929  0.44332527  0.21813177    -0.05560
N74         N  0.37142255  0.42531748  0.23308702    -0.63740
N75         N  0.39952497  0.45557813  0.19435241    -0.06270
N76         N  0.36100724  0.44694721  0.19270220    -0.63330
N77         N  0.44854350  0.40216432  0.18762836    -0.05160
N78         N  0.43456842  0.36116019  0.18838804    -0.64020
Mn79       Mn  0.44206343  0.47385255  0.15942960     1.10660
C80         C  0.41681521  0.34682336  0.16381907     0.98960
C81         C  0.34391326  0.42841474  0.21687662     0.99030
N82         N  0.01749919  0.02056584  0.26128352    -0.06270
N83         N  0.02481769  0.03551489  0.28681479    -0.61650
N84         N  0.02580963  0.44476328  0.22658978    -0.05590
N85         N  0.03322997  0.41295887  0.22887915    -0.58380
N86         N  0.06076056  0.48107704  0.22683644    -0.06900
N87         N  0.09242903  0.47472498  0.22937360    -0.61210
N88         N  0.48230347  0.48457410  0.26065822    -0.05890
N89         N  0.46530328  0.47439410  0.28572923    -0.58400
Mn90       Mn  0.06164145  0.04207769  0.22525293     1.20190
Mn91       Mn  0.46542028  0.44323093  0.22380029     1.10090
Cl92       Cl  0.50174778  0.00786687  0.19224432    -0.86370
C93         C  0.49182716  0.00672310  0.30184972     0.95960
C94         C  0.07495867  0.43216638  0.23043984     0.95760
C95         C  0.13901220  0.22671065  0.23901045    -0.06190
C96         C  0.09696923  0.20930937  0.23502758    -0.00260
C97         C  0.07842024  0.23374931  0.24145252    -0.08830
C98         C  0.10393762  0.27750047  0.24548062    -0.06210
C99         C  0.14751227  0.29704718  0.24955877    -0.00270
C100        C  0.16288566  0.26724383  0.25052143    -0.08740
C101        C  0.20094072  0.27229711  0.26492826     0.61640
H102        H  0.15244270  0.20650105  0.23558957     0.12330
H103        H  0.08834792  0.29553610  0.24800675     0.12350
C104        C  0.03245079  0.21285161  0.24761636     0.61870
F105        F  0.19363889  0.23376053  0.27510676    -0.23290
F106        F  0.21026618  0.29777721  0.28736010    -0.20620
F107        F  0.23468840  0.28684705  0.24718806    -0.20300
F108        F  0.02304413  0.18729716  0.27052390    -0.20350
F109        F  0.01080898  0.18819702  0.22577162    -0.20680
F110        F  0.01955105  0.24198550  0.25297053    -0.23350
C111        C  0.13571815  0.39133717  0.26831994    -0.06190
C112        C  0.14535004  0.36849579  0.24787560    -0.00260
C113        C  0.12919015  0.36721989  0.22073339    -0.08830
C114        C  0.10569124  0.38745691  0.21636542    -0.06210
C115        C  0.09818688  0.41014078  0.23693913    -0.00270
C116        C  0.11373916  0.41253207  0.26328192    -0.08740
C117        C  0.10811172  0.43870411  0.28600825     0.61640
H118        H  0.14762145  0.39569354  0.28864190     0.12330
H119        H  0.09338908  0.38612591  0.19613585     0.12350
C120        C  0.13307299  0.34492303  0.19494602     0.61870
F121        F  0.12221506  0.43426494  0.31111239    -0.23290
F122        F  0.06671276  0.42633722  0.28947321    -0.20620
F123        F  0.12991908  0.98101697  0.27893948    -0.20300
F124        F  0.09391561  0.31535230  0.18649798    -0.20350
F125        F  0.15469066  0.32418289  0.19796199    -0.20680
F126        F  0.15243129  0.37431894  0.17413715    -0.23350
C127        C  0.28492057  0.43447177  0.23440039    -0.06190
C128        C  0.29940160  0.40923038  0.22260278    -0.00260
C129        C  0.27100872  0.36817291  0.21381618    -0.08830
C130        C  0.22928014  0.35106125  0.22202135    -0.06210
C131        C  0.21503454  0.37284579  0.23973205    -0.00270
C132        C  0.24299494  0.41805767  0.24226417    -0.08740
C133        C  0.23126563  0.45046466  0.25279580     0.61640
H134        H  0.30748514  0.46730086  0.23808156     0.12330
H135        H  0.20863085  0.31938336  0.21545151     0.12350
C136        C  0.28515222  0.34226013  0.19656194     0.61870
F137        F  0.26446599  0.49133469  0.25228768    -0.23290
F138        F  0.21732195  0.44247781  0.27974480    -0.20620
F139        F  0.20205540  0.45061696  0.23605134    -0.20300
F140        F  0.31348521  0.33657535  0.21097888    -0.20350
F141        F  0.30350410  0.36321321  0.17221994    -0.20680
F142        F  0.25265124  0.30277756  0.18990313    -0.23350
C143        C  0.10182764  0.21867430  0.37974112    -0.06190
C144        C  0.09057455  0.20968452  0.40740176    -0.00260
C145        C  0.10683261  0.24354617  0.42671193    -0.08830
C146        C  0.13344232  0.28493890  0.41701504    -0.06210
C147        C  0.14295433  0.29498031  0.38876181    -0.00270
C148        C  0.13203780  0.25881238  0.37065240    -0.08740
C149        C  0.15253449  0.25558473  0.34357495     0.61640
H150        H  0.09026332  0.19255553  0.36516125     0.12330
H151        H  0.14576467  0.31047781  0.43164019     0.12350
C152        C  0.09606331  0.23694313  0.45734307     0.61870
F153        F  0.16018411  0.22211435  0.34513087    -0.23290
F154        F  0.19004370  0.28977756  0.33749465    -0.20620
F155        F  0.12617886  0.24734658  0.32196318    -0.20300
F156        F  0.11017798  0.21174986  0.46825670    -0.20350
F157        F  0.05369497  0.21810249  0.46127110    -0.20680
F158        F  0.11377622  0.27468522  0.47189693    -0.23350
C159        C  0.10478776  0.34910507  0.40421684    -0.06190
C160        C  0.14291509  0.36930411  0.38897204    -0.00260
C161        C  0.15656193  0.41223938  0.37988406    -0.08830
C162        C  0.13090381  0.42980143  0.38511296    -0.06210
C163        C  0.09391395  0.40912290  0.40014732    -0.00270
C164        C  0.08131828  0.36871220  0.41098005    -0.08740
C165        C  0.04353080  0.34613566  0.42997424     0.61640
H166        H  0.09152570  0.31688587  0.41045795     0.12330
H167        H  0.13924144  0.46034798  0.37652914     0.12350
C168        C  0.19554744  0.44087185  0.36270655     0.61870
F169        F  0.04160477  0.31126670  0.44246539    -0.23290
F170        F  0.00794724  0.33233988  0.41516655    -0.20620
F171        F  0.04498550  0.37340079  0.45067404    -0.20300
F172        F  0.18788786  0.43159897  0.33508828    -0.20350
F173        F  0.22927889  0.43798751  0.37003870    -0.20680
F174        F  0.20717542  0.48316171  0.36613943    -0.23350
C175        C  0.23311930  0.34353414  0.38858438    -0.06190
C176        C  0.20909169  0.36277266  0.39555771    -0.00260
C177        C  0.22686325  0.39611645  0.41605944    -0.08830
C178        C  0.26980949  0.41588419  0.42030980    -0.06210
C179        C  0.29427049  0.39973875  0.40946640    -0.00270
C180        C  0.27505141  0.36126552  0.39466295    -0.08740
C181        C  0.29801789  0.33814791  0.38561156     0.61640
H182        H  0.21895552  0.31414684  0.37779298     0.12330
H183        H  0.28443628  0.44373144  0.43334351     0.12350
C184        C  0.20401014  0.41092238  0.43591478     0.61870
F185        F  0.27175535  0.29838027  0.37499394    -0.23290
F186        F  0.31740193  0.33293043  0.40789036    -0.20620
F187        F  0.32703176  0.36097817  0.36525424    -0.20300
F188        F  0.16435568  0.37981591  0.44207664    -0.20350
F189        F  0.20412229  0.44603067  0.42557774    -0.20680
F190        F  0.22361509  0.42248933  0.46100868    -0.23350
C191        C  0.20742485  0.36840018  0.33474662    -0.06190
C192        C  0.16851405  0.34718166  0.34851664    -0.00260
C193        C  0.13279763  0.32881271  0.33154064    -0.08830
C194        C  0.13870009  0.32788936  0.30303278    -0.06210
C195        C  0.17726916  0.34867434  0.28869969    -0.00270
C196        C  0.21342564  0.36832009  0.30586732    -0.08740
C197        C  0.25910034  0.38572167  0.29751269     0.61640
H198        H  0.23467699  0.38460693  0.34684928     0.12330
H199        H  0.11148361  0.31407909  0.29095969     0.12350
C200        C  0.08788632  0.31309250  0.34147343     0.61870
F201        F  0.27931515  0.37646044  0.31746646    -0.23290
F202        F  0.27874910  0.42919695  0.29524791    -0.20620
F203        F  0.26516567  0.36825282  0.27393422    -0.20300
F204        F  0.08317077  0.34739878  0.34827906    -0.20350
F205        F  0.07608509  0.28599096  0.36348186    -0.20680
F206        F  0.05945965  0.29090561  0.32125810    -0.23350
C207        C  0.25401918  0.12114929  0.11913940    -0.06190
C208        C  0.28851417  0.14507689  0.13667635    -0.00260
C209        C  0.27632876  0.14419151  0.16562106    -0.08830
C210        C  0.23533197  0.13442462  0.17231356    -0.06210
C211        C  0.20306849  0.11091573  0.15448397    -0.00270
C212        C  0.21261453  0.10028674  0.12855382    -0.08740
C213        C  0.17987164  0.06348240  0.11224555     0.61640
H214        H  0.25842279  0.11449651  0.09810156     0.12330
H215        H  0.22734620  0.13896871  0.19329337     0.12350
C216        C  0.29815317  0.14188054  0.19122803     0.61870
F217        F  0.19757337  0.04881199  0.09276316    -0.23290
F218        F  0.15494057  0.07576322  0.09938072    -0.20620
F219        F  0.15571581  0.02986845  0.12960346    -0.20300
F220        F  0.31122858  0.17834897  0.20675909    -0.20350
F221        F  0.33038143  0.13452778  0.18579499    -0.20680
F222        F  0.27054711  0.10827136  0.20759587    -0.23350
C223        C  0.38079774  0.29297765  0.12827376    -0.06190
C224        C  0.39412753  0.30153751  0.15530354    -0.00260
C225        C  0.38843629  0.26739666  0.17182410    -0.08830
C226        C  0.36774471  0.22646140  0.16044689    -0.06210
C227        C  0.35859868  0.21721358  0.13218677    -0.00270
C228        C  0.37261627  0.25497362  0.11522329    -0.08740
C229        C  0.38950655  0.26440309  0.08539370     0.61640
H230        H  0.38505908  0.31916962  0.11557390     0.12330
H231        H  0.36454036  0.20175122  0.17319628     0.12350
C232        C  0.40456072  0.27325488  0.20100967     0.61870
F233        F  0.42687134  0.30209109  0.08448140    -0.23290
F234        F  0.36254701  0.26961272  0.06918647    -0.20620
F235        F  0.39847323  0.23562845  0.07372338    -0.20300
F236        F  0.38683674  0.29154111  0.21752784    -0.20350
F237        F  0.44711782  0.29851015  0.20045869    -0.20680
F238        F  0.39555401  0.23537131  0.21308513    -0.23350
C239        C  0.39841450  0.16770707  0.14316018    -0.06190
C240        C  0.35710608  0.14342927  0.13420104    -0.00260
C241        C  0.33929920  0.09781088  0.13509517    -0.08830
C242        C  0.36347374  0.08094085  0.14459645    -0.06210
C243        C  0.40527910  0.10593429  0.15050686    -0.00270
C244        C  0.42280775  0.15033628  0.15061544    -0.08740
C245        C  0.46738411  0.18011499  0.15794520     0.61640
H246        H  0.41425806  0.20153920  0.14124880     0.12330
H247        H  0.35017676  0.04705825  0.14604517     0.12350
C248        C  0.29670237  0.06515132  0.12491129     0.61870
F249        F  0.47607520  0.22156768  0.16120247    -0.23290
F250        F  0.49352577  0.17930788  0.13746582    -0.20620
F251        F  0.47509254  0.16758715  0.18255311    -0.20300
F252        F  0.29101487  0.07507394  0.09875027    -0.20350
F253        F  0.26631377  0.06205320  0.14317996    -0.20680
F254        F  0.29171275  0.02490453  0.12289544    -0.23350
C255        C  0.22077812  0.10795668  0.45398804    -0.06190
C256        C  0.19049952  0.09554524  0.47504590    -0.00260
C257        C  0.20213921  0.09668386  0.00245172    -0.08830
C258        C  0.24413630  0.11360200  0.00782396    -0.06210
C259        C  0.27586288  0.13625522  0.48784713    -0.00270
C260        C  0.26333928  0.12696886  0.45951239    -0.08740
C261        C  0.29241231  0.13422016  0.43482977     0.61640
H262        H  0.21072079  0.10339665  0.43289995     0.12330
H263        H  0.25183918  0.11086035  0.02856842     0.12350
C264        C  0.17100823  0.08127286  0.02631365     0.61870
F265        F  0.27218099  0.12511559  0.41002170    -0.23290
F266        F  0.30945138  0.10829198  0.43634417    -0.20620
F267        F  0.32316781  0.17548356  0.43345243    -0.20300
F268        F  0.13990064  0.04026442  0.02155372    -0.20350
F269        F  0.15444127  0.10761932  0.02992993    -0.20680
F270        F  0.18930014  0.08173462  0.05059644    -0.23350
C271        C  0.38300190  0.23745161  0.50291621    -0.06190
C272        C  0.34351596  0.21286504  0.49065962    -0.00260
C273        C  0.32965768  0.23611152  0.47394368    -0.08830
C274        C  0.35877710  0.27794311  0.46647390    -0.06210
C275        C  0.39711447  0.30048753  0.47872475    -0.00270
C276        C  0.40914390  0.28073504  0.49793100    -0.08740
C277        C  0.45047962  0.30498004  0.51190241     0.61640
H278        H  0.39448278  0.22197941  0.51591925     0.12330
H279        H  0.35019925  0.29487472  0.45228449     0.12350
C280        C  0.28598618  0.22418040  0.46512916     0.61870
F281        F  0.45753631  0.27956511  0.52924829    -0.23290
F282        F  0.45161638  0.33774178  0.02738022    -0.20620
F283        F  0.48194280  0.32146692  0.49214909    -0.20300
F284        F  0.27976332  0.25837999  0.96931992    -0.20370
F285        F  0.25463484  0.19209093  0.47971064    -0.20680
F286        F  0.28152846  0.21450260  0.43733610    -0.23350
C287        C  0.32574594  0.09742372  0.49132642    -0.06190
C288        C  0.34557075  0.14168989  0.48558253    -0.00260
C289        C  0.38702681  0.15987941  0.47357052    -0.08830
C290        C  0.40788712  0.13657374  0.47506059    -0.06210
C291        C  0.38854124  0.09415847  0.48295373    -0.00270
C292        C  0.34585270  0.07345281  0.48998347    -0.08740
C293        C  0.32139322  0.02678719  0.49760637     0.61640
H294        H  0.29464857  0.08196639  0.49969117     0.12330
H295        H  0.44003899  0.15147521  0.46829387     0.12350
C296        C  0.41254831  0.20067097  0.45703563     0.61870
F297        F  0.28091779  0.01411166  0.50543631    -0.23290
F298        F  0.33952560  0.01887207  0.51950164    -0.20620
F299        F  0.32011853  0.00239087  0.47511009    -0.20300
F300        F  0.44644325  0.22860344  0.97205140    -0.20350
F301        F  0.39196503  0.22076279  0.44889178    -0.20680
F302        F  0.42705740  0.19129308  0.43284782    -0.23350
C303        C  0.34664389  0.14930182  0.04389150    -0.06190
C304        C  0.32278464  0.16472760  0.03134057    -0.00260
C305        C  0.30537994  0.18349907  0.05021844    -0.08830
C306        C  0.31035944  0.18165572  0.07883292    -0.06210
C307        C  0.33388659  0.16574805  0.09088907    -0.00270
C308        C  0.35634659  0.15326738  0.07188991    -0.08740
C309        C  0.39698419  0.15360579  0.07764383     0.61640
H310        H  0.36247270  0.13731430  0.03147979     0.12330
H311        H  0.29644604  0.19434358  0.09306247     0.12350
C312        C  0.28244504  0.20711582  0.04241523     0.61870
F313        F  0.41958777  0.15643265  0.05378619    -0.23290
F314        F  0.38949791  0.11700396  0.09040014    -0.20620
F315        F  0.42316075  0.18875088  0.09268483    -0.20300
F316        F  0.24635684  0.18114461  0.02932124    -0.20350
F317        F  0.30717091  0.24193658  0.02651348    -0.20680
F318        F  0.27089957  0.22260936  0.06519990    -0.23350
C319        C  0.32150456  0.16452446  0.49803177    -0.02890
C320        C  0.33500382  0.16770038  0.62346276    -0.02890
C321        C  0.16587497  0.34389160  0.88073046    -0.02890
C322        C  0.17249950  0.34717951  0.75610809    -0.02890
N323        N  0.05179833  0.09951427  0.91456756    -0.06520
N324        N  0.06858360  0.13346166  0.89880922    -0.58640
N325        N  0.08624759  0.06939150  0.96690539    -0.06200
N326        N  0.11830834  0.08324073  0.98304898    -0.60770
N327        N  0.09526581  0.05909774  0.94264122    -0.05800
N328        N  0.13323197  0.06547004  0.94181902    -0.58620
N329        N  0.04157257  0.10874318  0.93882591    -0.05480
N330        N  0.05090027  0.14867510  0.93984859    -0.61120
C331        C  0.06765358  0.16397775  0.91479819     0.95650
C332        C  0.14725550  0.08018958  0.96722074     0.95430
N333        N  0.47773213  0.48960051  0.51207463    -0.06710
N334        N  0.47131514  0.47484196  0.53760338    -0.59220
N335        N  0.46577345  0.06359466  0.97995409    -0.04830
N336        N  0.45622046  0.09403741  0.98094859    -0.60470
N337        N  0.43197918  0.02648534  0.98080352    -0.06740
N338        N  0.39900864  0.03088572  0.98234576    -0.59490
N339        N  0.01192003  0.02652006  0.51079267    -0.04470
N340        N  0.02928017  0.03740876  0.53522799    -0.60560
Mn341      Mn  0.02683472  0.06779629  0.97457514     1.18440
C342        C  0.00400616  0.00470344  0.55178749     0.97730
C343        C  0.41424930  0.07311694  0.98263013     0.98400
N344        N  0.05468822  0.48005143  0.90452853    -0.06760
N345        N  0.08677432  0.47399333  0.90311741    -0.63070
N346        N  0.47730607  0.48279349  0.87342663    -0.05560
N347        N  0.46284974  0.47282251  0.84808750    -0.63740
N348        N  0.01152846  0.01975506  0.87325675    -0.06270
N349        N  0.02081038  0.03544805  0.84801941    -0.63330
N350        N  0.02021431  0.44353365  0.90536138    -0.05160
N351        N  0.02801661  0.41195297  0.90453606    -0.64020
Mn352      Mn  0.05380345  0.04018390  0.90820010     1.10660
C353        C  0.06968560  0.43130526  0.90331156     0.98960
C354        C  0.49000990  0.00627874  0.83248851     0.99030
N355        N  0.39107458  0.44726637  0.94188218    -0.06270
N356        N  0.35169564  0.43680847  0.94265653    -0.61650
N357        N  0.44508337  0.39899972  0.94638652    -0.05590
N358        N  0.43606105  0.35910835  0.94599251    -0.58380
N359        N  0.43650472  0.40911834  0.97091808    -0.06900
N360        N  0.42136305  0.37618632  0.98753734    -0.61210
N361        N  0.40124692  0.43851507  0.91742033    -0.05890
N362        N  0.36901843  0.42175258  0.90129068    -0.58400
Mn363      Mn  0.43374806  0.46750850  0.97701743     1.20190
Mn364      Mn  0.46036962  0.44038789  0.91013005     1.10090
Cl365      Cl  0.49358943  0.00398931  0.94244648    -0.86370
C366        C  0.33830378  0.42089581  0.91720727     0.95960
C367        C  0.42221877  0.34554806  0.97191271     0.95760
N368        N  0.44314859  0.03439746  0.65705683    -0.06520
N369        N  0.41156807  0.04094374  0.65526808    -0.58640
N370        N  0.01972993  0.02999059  0.62329318    -0.06200
N371        N  0.03400226  0.03940373  0.59746511    -0.60770
N372        N  0.48515328  0.49326896  0.62378927    -0.05800
N373        N  0.47559616  0.47720443  0.59868540    -0.58620
N374        N  0.47789478  0.07051704  0.65751292    -0.05480
N375        N  0.47069436  0.10232980  0.65580898    -0.61120
C376        C  0.42909775  0.08361029  0.65464645     0.95650
C377        C  0.00641270  0.00580653  0.58237775     0.95430
N378        N  0.10562979  0.06401344  0.68950295    -0.06710
N379        N  0.14533231  0.07563977  0.68959927    -0.59220
N380        N  0.05215373  0.11314405  0.69829887    -0.04830
N381        N  0.06031134  0.15283113  0.70000521    -0.60470
N382        N  0.06058632  0.10160070  0.72175099    -0.06740
N383        N  0.07493648  0.13321380  0.73957768    -0.59490
N384        N  0.09630771  0.07415764  0.66585450    -0.04470
N385        N  0.12938806  0.09267656  0.64950035    -0.60560
Mn386      Mn  0.03713654  0.07258410  0.66070326     1.18440
C387        C  0.15965195  0.09315936  0.66445743     0.97730
C388        C  0.07372313  0.16468127  0.72604162     0.98400
N389        N  0.43999791  0.41284564  0.66395781    -0.06760
N390        N  0.41986366  0.37894901  0.64834847    -0.63070
N391        N  0.40618937  0.44332528  0.71813177    -0.05560
N392        N  0.37142264  0.42531746  0.73308703    -0.63740
N393        N  0.39952502  0.45557814  0.69435242    -0.06270
N394        N  0.36100727  0.44694717  0.69270222    -0.63330
N395        N  0.44854369  0.40216447  0.68762837    -0.05160
N396        N  0.43456859  0.36116033  0.68838804    -0.64020
Mn397      Mn  0.44206352  0.47385265  0.65942961     1.10660
C398        C  0.41681536  0.34682352  0.66381908     0.98960
C399        C  0.34391332  0.42841469  0.71687664     0.99030
N400        N  0.01749910  0.02056592  0.76128357    -0.06270
N401        N  0.02481752  0.03551494  0.78681485    -0.61650
N402        N  0.02580976  0.44476346  0.72658981    -0.05590
N403        N  0.03323016  0.41295908  0.72887915    -0.58380
N404        N  0.06076067  0.48107725  0.72683649    -0.06900
N405        N  0.09242917  0.47472523  0.72937366    -0.61210
N406        N  0.48230346  0.48457415  0.76065824    -0.05890
N407        N  0.46530321  0.47439410  0.78572923    -0.58400
Mn408      Mn  0.06164140  0.04207787  0.72525299     1.20190
Mn409      Mn  0.46542039  0.44323104  0.72380030     1.10090
Cl410      Cl  0.50174779  0.00786701  0.69224435    -0.86370
C411        C  0.49182699  0.00672308  0.80184975     0.95960
C412        C  0.07495885  0.43216664  0.73043986     0.95760
C413        C  0.13901208  0.22671073  0.73901048    -0.06190
C414        C  0.09696911  0.20930951  0.73502762    -0.00260
C415        C  0.07842019  0.23374949  0.74145260    -0.08830
C416        C  0.10393762  0.27750065  0.74548066    -0.06210
C417        C  0.14751225  0.29704729  0.74955882    -0.00270
C418        C  0.16288557  0.26724389  0.75052148    -0.08740
C419        C  0.20094057  0.27229706  0.76492832     0.61640
H420        H  0.15244255  0.20650110  0.73558959     0.12330
H421        H  0.08834795  0.29553633  0.74800676     0.12350
C422        C  0.03245075  0.21285185  0.74761644     0.61870
F423        F  0.19363853  0.23376048  0.77510696    -0.23290
F424        F  0.21026624  0.29777737  0.78736007    -0.20620
F425        F  0.23468818  0.28684669  0.74718809    -0.20300
F426        F  0.02304397  0.18729701  0.77052379    -0.20350
F427        F  0.01080895  0.18819769  0.72577156    -0.20680
F428        F  0.01955113  0.24198576  0.75297092    -0.23350
C429        C  0.13571830  0.39133740  0.76831996    -0.06190
C430        C  0.14535015  0.36849598  0.74787563    -0.00260
C431        C  0.12919030  0.36722010  0.72073342    -0.08830
C432        C  0.10569142  0.38745716  0.71636544    -0.06210
C433        C  0.09818708  0.41014106  0.73693914    -0.00270
C434        C  0.11373934  0.41253233  0.76328193    -0.08740
C435        C  0.10811191  0.43870438  0.78600826     0.61640
H436        H  0.14762157  0.39569374  0.78864193     0.12330
H437        H  0.09338928  0.38612616  0.69613586     0.12350
C438        C  0.13307312  0.34492322  0.69494606     0.61870
F439        F  0.12221522  0.43426518  0.81111241    -0.23290
F440        F  0.06671295  0.42633751  0.78947321    -0.20620
F441        F  0.12991925  0.98101722  0.77893950    -0.20300
F442        F  0.09391574  0.31535249  0.68649802    -0.20350
F443        F  0.15469080  0.32418308  0.69796204    -0.20680
F444        F  0.15243143  0.37431912  0.67413718    -0.23350
C445        C  0.28492069  0.43447176  0.73440046    -0.06190
C446        C  0.29940167  0.40923034  0.72260285    -0.00260
C447        C  0.27100876  0.36817287  0.71381627    -0.08830
C448        C  0.22928020  0.35106125  0.72202146    -0.06210
C449        C  0.21503462  0.37284584  0.73973214    -0.00270
C450        C  0.24299506  0.41805771  0.74226425    -0.08740
C451        C  0.23126581  0.45046475  0.75279586     0.61640
H452        H  0.30748528  0.46730085  0.73808162     0.12330
H453        H  0.20863087  0.31938337  0.71545162     0.12350
C454        C  0.28515221  0.34226004  0.69656203     0.61870
F455        F  0.26446621  0.49133476  0.75228776    -0.23290
F456        F  0.21732209  0.44247792  0.77974486    -0.20620
F457        F  0.20205563  0.45061711  0.73605138    -0.20300
F458        F  0.31348520  0.33657525  0.71097896    -0.20350
F459        F  0.30350408  0.36321310  0.67222002    -0.20680
F460        F  0.25265120  0.30277748  0.68990324    -0.23350
C461        C  0.10182719  0.21867416  0.87974111    -0.06190
C462        C  0.09057409  0.20968438  0.90740174    -0.00260
C463        C  0.10683217  0.24354601  0.92671193    -0.08830
C464        C  0.13344191  0.28493874  0.91701504    -0.06210
C465        C  0.14295394  0.29498016  0.88876182    -0.00270
C466        C  0.13203737  0.25881224  0.87065239    -0.08740
C467        C  0.15253403  0.25558458  0.84357492     0.61640
H468        H  0.09026285  0.19255539  0.86516123     0.12330
H469        H  0.14576428  0.31047763  0.93164020     0.12350
C470        C  0.09606287  0.23694296  0.95734307     0.61870
F471        F  0.16018358  0.22211416  0.84513082    -0.23290
F472        F  0.19004327  0.28977738  0.83749463    -0.20620
F473        F  0.12617839  0.24734650  0.82196317    -0.20300
F474        F  0.11017750  0.21174963  0.96825668    -0.20350
F475        F  0.05369454  0.21810237  0.96127111    -0.20680
F476        F  0.11377583  0.27468503  0.97189694    -0.23350
C477        C  0.10478743  0.34910495  0.90421685    -0.06190
C478        C  0.14291478  0.36930400  0.88897208    -0.00260
C479        C  0.15656168  0.41223930  0.87988414    -0.08830
C480        C  0.13090359  0.42980138  0.88511306    -0.06210
C481        C  0.09391369  0.40912284  0.90014738    -0.00270
C482        C  0.08131797  0.36871211  0.91098007    -0.08740
C483        C  0.04353048  0.34613557  0.92997426     0.61640
H484        H  0.09152532  0.31688574  0.91045792     0.12330
H485        H  0.13924126  0.46034797  0.87652927     0.12350
C486        C  0.19554722  0.44087177  0.86270666     0.61870
F487        F  0.04160444  0.31126659  0.94246539    -0.23290
F488        F  0.00794694  0.33233981  0.91516657    -0.20620
F489        F  0.04498518  0.37340068  0.95067406    -0.20300
F490        F  0.18788768  0.43159889  0.83508838    -0.20350
F491        F  0.22927864  0.43798742  0.87003884    -0.20680
F492        F  0.20717520  0.48316163  0.86613952    -0.23350
C493        C  0.23311890  0.34353387  0.88858444    -0.06190
C494        C  0.20909132  0.36277243  0.89555777    -0.00260
C495        C  0.22686290  0.39611620  0.91605951    -0.08830
C496        C  0.26980913  0.41588393  0.92030985    -0.06210
C497        C  0.29427012  0.39973848  0.90946644    -0.00270
C498        C  0.27505102  0.36126524  0.89466300    -0.08740
C499        C  0.29801748  0.33814761  0.88561161     0.61640
H500        H  0.21895511  0.31414659  0.87779300     0.12330
H501        H  0.28443593  0.44373118  0.93334356     0.12350
C502        C  0.20400981  0.41092214  0.93591486     0.61870
F503        F  0.27175492  0.29837996  0.87499400    -0.23290
F504        F  0.31740152  0.33293013  0.90789041    -0.20620
F505        F  0.32703134  0.36097785  0.86525429    -0.20300
F506        F  0.16435530  0.37981571  0.94207667    -0.20350
F507        F  0.20412207  0.44603050  0.92557787    -0.20680
F508        F  0.22361472  0.42248896  0.96100877    -0.23350
C509        C  0.20742467  0.36840012  0.83474672    -0.06190
C510        C  0.16851383  0.34718160  0.84851669    -0.00260
C511        C  0.13279745  0.32881275  0.83154065    -0.08830
C512        C  0.13870000  0.32788946  0.80303279    -0.06210
C513        C  0.17726912  0.34867441  0.78869975    -0.00270
C514        C  0.21342555  0.36832010  0.80586742    -0.08740
C515        C  0.25910028  0.38572172  0.79751284     0.61640
H516        H  0.23467678  0.38460685  0.84684940     0.12330
H517        H  0.11148355  0.31407928  0.79095967     0.12350
C518        C  0.08788613  0.31309256  0.84147338     0.61870
F519        F  0.27931505  0.37646046  0.81746663    -0.23290
F520        F  0.27874903  0.42919701  0.79524810    -0.20620
F521        F  0.26516572  0.36825295  0.77393437    -0.20300
F522        F  0.08317061  0.34739886  0.84827903    -0.20350
F523        F  0.07608481  0.28599096  0.86348179    -0.20680
F524        F  0.05945951  0.29090574  0.82125801    -0.23350
C525        C  0.25401907  0.12114945  0.61913945    -0.06190
C526        C  0.28851410  0.14507706  0.63667636    -0.00260
C527        C  0.27632876  0.14419167  0.66562108    -0.08830
C528        C  0.23533201  0.13442487  0.67231363    -0.06210
C529        C  0.20306848  0.11091600  0.65448407    -0.00270
C530        C  0.21261444  0.10028694  0.62855392    -0.08740
C531        C  0.17987153  0.06348259  0.61224568     0.61640
H532        H  0.25842260  0.11449661  0.59810162     0.12330
H533        H  0.22734630  0.13896897  0.69329346     0.12350
C534        C  0.29815316  0.14188055  0.69122801     0.61870
F535        F  0.19757327  0.04881177  0.59276359    -0.23290
F536        F  0.15494086  0.07576362  0.59938051    -0.20620
F537        F  0.15571530  0.02986885  0.62960363    -0.20300
F538        F  0.31122860  0.17834890  0.70675916    -0.20350
F539        F  0.33038141  0.13452780  0.68579489    -0.20680
F540        F  0.27054708  0.10827129  0.70759579    -0.23350
C541        C  0.38079761  0.29297786  0.62827383    -0.06190
C542        C  0.39412757  0.30153768  0.65530355    -0.00260
C543        C  0.38843628  0.26739678  0.67182408    -0.08830
C544        C  0.36774462  0.22646162  0.66044682    -0.06210
C545        C  0.35859858  0.21721377  0.63218671    -0.00270
C546        C  0.37261600  0.25497386  0.61522327    -0.08740
C547        C  0.38950558  0.26440340  0.58539351     0.61640
H548        H  0.38505879  0.31916988  0.61557404     0.12330
H549        H  0.36454007  0.20175096  0.67319639     0.12350
C550        C  0.40456069  0.27325494  0.70100965     0.61870
F551        F  0.42687028  0.30209149  0.58448095    -0.23290
F552        F  0.36254556  0.26961295  0.56918674    -0.20620
F553        F  0.39847218  0.23562894  0.57372279    -0.20300
F554        F  0.38683677  0.29154122  0.71752783    -0.20350
F555        F  0.44711780  0.29851013  0.70045868    -0.20680
F556        F  0.39555389  0.23537133  0.71308509    -0.23350
C557        C  0.39841432  0.16770710  0.64316027    -0.06190
C558        C  0.35710598  0.14342939  0.63420095    -0.00260
C559        C  0.33929919  0.09781098  0.63509480    -0.08830
C560        C  0.36347372  0.08094087  0.64459597    -0.06210
C561        C  0.40527899  0.10593428  0.65050663    -0.00270
C562        C  0.42280755  0.15033625  0.65061548    -0.08740
C563        C  0.46738381  0.18011490  0.65794549     0.61640
H564        H  0.41425787  0.20153925  0.64124911     0.12330
H565        H  0.35017682  0.04705825  0.64604445     0.12350
C566        C  0.29670236  0.06515149  0.62491088     0.61870
F567        F  0.47607481  0.22156752  0.66120301    -0.23290
F568        F  0.49352570  0.17930813  0.63746616    -0.20620
F569        F  0.47509197  0.16758667  0.68255335    -0.20300
F570        F  0.29101485  0.07507426  0.59874991    -0.20350
F571        F  0.26631379  0.06205329  0.64317961    -0.20680
F572        F  0.29171271  0.02490470  0.62289492    -0.23350
C573        C  0.22077773  0.10795683  0.95398817    -0.06190
C574        C  0.19049917  0.09554556  0.97504605    -0.00260
C575        C  0.20213950  0.09668322  0.50245155    -0.08830
C576        C  0.24413660  0.11360156  0.50782382    -0.06210
C577        C  0.27586258  0.13625541  0.98784722    -0.00270
C578        C  0.26333890  0.12696901  0.95951249    -0.08740
C579        C  0.29241187  0.13422022  0.93482984     0.61640
H580        H  0.21072037  0.10339662  0.93290009     0.12330
H581        H  0.25183947  0.11085986  0.52856828     0.12350
C582        C  0.17100841  0.08127168  0.52631342     0.61870
F583        F  0.27218056  0.12511596  0.91002178    -0.23290
F584        F  0.30945065  0.10829177  0.93634413    -0.20620
F585        F  0.32316759  0.17548354  0.93345257    -0.20300
F586        F  0.13990081  0.04026337  0.52155311    -0.20350
F587        F  0.15444147  0.10761809  0.52993009    -0.20680
F588        F  0.18930019  0.08173276  0.55059612    -0.23350
C589        C  0.38300171  0.23745161  0.00291624    -0.06190
C590        C  0.34351576  0.21286508  0.99065966    -0.00260
C591        C  0.32965749  0.23611159  0.97394374    -0.08830
C592        C  0.35877694  0.27794315  0.96647395    -0.06210
C593        C  0.39711431  0.30048753  0.97872479    -0.00270
C594        C  0.40914372  0.28073504  0.99793104    -0.08740
C595        C  0.45047943  0.30498002  0.01190247     0.61640
H596        H  0.39448257  0.22197939  0.01591928     0.12330
H597        H  0.35019911  0.29487477  0.95228453     0.12350
C598        C  0.28598598  0.22418050  0.96512926     0.61870
F599        F  0.45753612  0.27956506  0.02924832    -0.23290
F600        F  0.45161661  0.33774185  0.52738013    -0.20620
F601        F  0.48194263  0.32146696  0.99214917    -0.20300
F602        F  0.27976341  0.25837978  0.46931998    -0.20370
F603        F  0.25463465  0.19209124  0.97971089    -0.20680
F604        F  0.28152810  0.21450242  0.93733624    -0.23350
C605        C  0.32574543  0.09742364  0.99132617    -0.06190
C606        C  0.34557038  0.14168987  0.98558244    -0.00260
C607        C  0.38702649  0.15987939  0.97357054    -0.08830
C608        C  0.40788674  0.13657366  0.97506063    -0.06210
C609        C  0.38854072  0.09415831  0.98295359    -0.00270
C610        C  0.34585210  0.07345263  0.98998310    -0.08740
C611        C  0.32139240  0.02678687  0.99760559     0.61640
H612        H  0.29464802  0.08196630  0.99969085     0.12330
H613        H  0.44003866  0.15147516  0.96829403     0.12350
C614        C  0.41254809  0.20067098  0.95703569     0.61870
F615        F  0.28091680  0.01411124  0.00543513    -0.23290
F616        F  0.33952422  0.01887126  0.01950098    -0.20620
F617        F  0.32011821  0.00239099  0.97510918    -0.20300
F618        F  0.44644351  0.22860350  0.47205129    -0.20350
F619        F  0.39196487  0.22076286  0.94889180    -0.20680
F620        F  0.42705723  0.19129309  0.93284790    -0.23350
C621        C  0.34664418  0.14930210  0.54389156    -0.06190
C622        C  0.32278474  0.16472758  0.53134054    -0.00260
C623        C  0.30537974  0.18349886  0.55021833    -0.08830
C624        C  0.31035918  0.18165560  0.57883283    -0.06210
C625        C  0.33388652  0.16574823  0.59088905    -0.00270
C626        C  0.35634686  0.15326790  0.57188998    -0.08740
C627        C  0.39698497  0.15360745  0.57764395     0.61640
H628        H  0.36247329  0.13731480  0.53147993     0.12330
H629        H  0.29644563  0.19434339  0.59306234     0.12350
C630        C  0.28244461  0.20711531  0.54241501     0.61870
F631        F  0.41958890  0.15643509  0.55378633    -0.23290
F632        F  0.38949951  0.11700583  0.59040017    -0.20620
F633        F  0.42316082  0.18875271  0.59268509    -0.20300
F634        F  0.24635654  0.18114392  0.52932095    -0.20350
F635        F  0.30717040  0.24193612  0.52651328    -0.20680
F636        F  0.27089886  0.22260870  0.56519962    -0.23350
C637        C  0.32150432  0.66452451  0.99803179    -0.02890
C638        C  0.33500387  0.66770019  0.12346278    -0.02890
C639        C  0.16587531  0.84389174  0.38073043    -0.02890
C640        C  0.17249950  0.84717940  0.25610805    -0.02890
N641        N  0.05179874  0.59951439  0.41456754    -0.06520
N642        N  0.06858401  0.63346179  0.39880920    -0.58640
N643        N  0.08624802  0.56939153  0.46690533    -0.06200
N644        N  0.11830878  0.58324068  0.48304889    -0.60770
N645        N  0.09526619  0.55909777  0.44264114    -0.05800
N646        N  0.13323232  0.56546999  0.44181890    -0.58620
N647        N  0.04157304  0.60874331  0.43882591    -0.05480
N648        N  0.05090078  0.64867524  0.43984861    -0.61120
C649        C  0.06765405  0.66397789  0.41479820     0.95650
C650        C  0.14725588  0.58018947  0.46722062     0.95430
N651        N  0.47773173  0.98960042  0.01207463    -0.06710
N652        N  0.47131481  0.97484183  0.03760336    -0.59220
N653        N  0.46577394  0.56359482  0.47995412    -0.04830
N654        N  0.45622097  0.59403758  0.48094866    -0.60470
N655        N  0.43197966  0.52648550  0.48080354    -0.06740
N656        N  0.39900914  0.53088591  0.48234580    -0.59490
N657        N  0.01191960  0.52651999  0.01079266    -0.04470
N658        N  0.02927980  0.53740866  0.03522796    -0.60560
Mn659      Mn  0.02683518  0.56779639  0.47457513     1.18440
C660        C  0.00400585  0.50470332  0.05178746     0.97730
C661        C  0.41424982  0.57311712  0.48263021     0.98400
N662        N  0.05468851  0.98005149  0.40452847    -0.06760
N663        N  0.08677459  0.97399338  0.40311734    -0.63070
N664        N  0.47730637  0.98279360  0.37342662    -0.05560
N665        N  0.46285000  0.97282260  0.34808749    -0.63740
N666        N  0.01152875  0.51975515  0.37325670    -0.06270
N667        N  0.02081064  0.53544812  0.34801936    -0.63330
N668        N  0.02021459  0.94353372  0.40536134    -0.05160
N669        N  0.02801688  0.91195303  0.40453603    -0.64020
Mn670      Mn  0.05380379  0.54018399  0.40820004     1.10660
C671        C  0.06968587  0.93130531  0.40331150     0.98960
C672        C  0.49001010  0.50627879  0.33248850     0.99030
N673        N  0.39107496  0.94726656  0.44188218    -0.06270
N674        N  0.35169603  0.93680870  0.44265652    -0.61650
N675        N  0.44508365  0.89899980  0.44638649    -0.05590
N676        N  0.43606125  0.85910840  0.44599246    -0.58380
N677        N  0.43650503  0.90911842  0.47091806    -0.06900
N678        N  0.42136331  0.87618638  0.48753730    -0.61210
N679        N  0.40124729  0.93851526  0.41742032    -0.05890
N680        N  0.36901881  0.92175284  0.40129067    -0.58400
Mn681      Mn  0.43374847  0.96750864  0.47701741     1.20190
Mn682      Mn  0.46036994  0.94038800  0.41013003     1.10090
Cl683      Cl  0.49358979  0.50398941  0.44244647    -0.86370
C684        C  0.33830417  0.92089609  0.41720725     0.95960
C685        C  0.42221896  0.84554809  0.47191266     0.95760
N686        N  0.44314861  0.53439739  0.15705685    -0.06520
N687        N  0.41156809  0.54094369  0.15526817    -0.58640
N688        N  0.01972982  0.52999041  0.12329313    -0.06200
N689        N  0.03400209  0.53940356  0.09746505    -0.60770
N690        N  0.48515316  0.99326880  0.12378925    -0.05800
N691        N  0.47559596  0.97720428  0.09868538    -0.58620
N692        N  0.47789480  0.57051695  0.15751293    -0.05480
N693        N  0.47069440  0.60232974  0.15580906    -0.61120
C694        C  0.42909779  0.58361024  0.15464658     0.95650
C695        C  0.00641247  0.50580637  0.08237771     0.95430
N696        N  0.10562975  0.56401316  0.18950284    -0.06710
N697        N  0.14533226  0.57563943  0.18959914    -0.59220
N698        N  0.05215384  0.61314394  0.19829880    -0.04830
N699        N  0.06031149  0.65283103  0.20000514    -0.60470
N700        N  0.06058645  0.60160057  0.22175091    -0.06740
N701        N  0.07493665  0.63321368  0.23957760    -0.59490
N702        N  0.09630768  0.57415739  0.16585440    -0.04470
N703        N  0.12938801  0.59267629  0.14950024    -0.60560
Mn704      Mn  0.03713654  0.57258395  0.16070321     1.18440
C705        C  0.15965190  0.59315901  0.16445730     0.97730
C706        C  0.07372332  0.66468117  0.22604155     0.98400
N707        N  0.43999772  0.91284548  0.16395780    -0.06760
N708        N  0.41986348  0.87894885  0.14834846    -0.63070
N709        N  0.40618933  0.94332528  0.21813177    -0.05560
N710        N  0.37142259  0.92531749  0.23308703    -0.63740
N711        N  0.39952501  0.95557815  0.19435242    -0.06270
N712        N  0.36100727  0.94694723  0.19270221    -0.63330
N713        N  0.44854351  0.90216432  0.18762836    -0.05160
N714        N  0.43456842  0.86116019  0.18838803    -0.64020
Mn715      Mn  0.44206346  0.97385257  0.15942960     1.10660
C716        C  0.41681520  0.84682336  0.16381907     0.98960
C717        C  0.34391330  0.92841476  0.21687663     0.99030
N718        N  0.01749916  0.52056585  0.26128351    -0.06270
N719        N  0.02481766  0.53551489  0.28681478    -0.61650
N720        N  0.02580966  0.94476327  0.22658980    -0.05590
N721        N  0.03323001  0.91295886  0.22887916    -0.58380
N722        N  0.06076059  0.98107703  0.22683645    -0.06900
N723        N  0.09242906  0.97472497  0.22937362    -0.61210
N724        N  0.48230351  0.98457410  0.26065821    -0.05890
N725        N  0.46530331  0.97439411  0.28572923    -0.58400
Mn726      Mn  0.06164141  0.54207769  0.22525291     1.20190
Mn727      Mn  0.46542031  0.94323093  0.22380029     1.10090
Cl728      Cl  0.50174775  0.50786687  0.19224433    -0.86370
C729        C  0.49182712  0.50672309  0.30184973     0.95960
C730        C  0.07495871  0.93216638  0.23043986     0.95760
C731        C  0.13901223  0.72671067  0.23901042    -0.06190
C732        C  0.09696926  0.70930939  0.23502757    -0.00260
C733        C  0.07842028  0.73374932  0.24145256    -0.08830
C734        C  0.10393765  0.77750048  0.24548066    -0.06210
C735        C  0.14751230  0.79704719  0.24955879    -0.00270
C736        C  0.16288569  0.76724384  0.25052142    -0.08740
C737        C  0.20094074  0.77229710  0.26492825     0.61640
H738        H  0.15244274  0.70650107  0.23558952     0.12330
H739        H  0.08834795  0.79553611  0.24800680     0.12350
C740        C  0.03245082  0.71285161  0.24761639     0.61870
F741        F  0.19363890  0.73376051  0.27510674    -0.23290
F742        F  0.21026620  0.79777719  0.28736010    -0.20620
F743        F  0.23468843  0.78684705  0.24718806    -0.20300
F744        F  0.02304409  0.68729684  0.27052378    -0.20350
F745        F  0.01080905  0.68819736  0.22577154    -0.20680
F746        F  0.01955113  0.74198548  0.25297081    -0.23350
C747        C  0.13571820  0.89133718  0.26831995    -0.06190
C748        C  0.14535007  0.86849579  0.24787561    -0.00260
C749        C  0.12919018  0.86721988  0.22073341    -0.08830
C750        C  0.10569126  0.88745690  0.21636544    -0.06210
C751        C  0.09818692  0.91014078  0.23693914    -0.00270
C752        C  0.11373919  0.91253208  0.26328193    -0.08740
C753        C  0.10811176  0.93870412  0.28600826     0.61640
H754        H  0.14762149  0.89569355  0.28864192     0.12330
H755        H  0.09338911  0.88612589  0.19613587     0.12350
C756        C  0.13307300  0.84492301  0.19494604     0.61870
F757        F  0.12221510  0.93426495  0.31111241    -0.23290
F758        F  0.06671280  0.92633723  0.28947322    -0.20620
F759        F  0.12991904  0.48101696  0.27893947    -0.20300
F760        F  0.09391562  0.81535227  0.18649801    -0.20350
F761        F  0.15469068  0.82418288  0.19796201    -0.20680
F762        F  0.15243129  0.87431891  0.17413716    -0.23350
C763        C  0.28492061  0.93447178  0.23440041    -0.06190
C764        C  0.29940164  0.90923039  0.22260280    -0.00260
C765        C  0.27100876  0.86817293  0.21381619    -0.08830
C766        C  0.22928018  0.85106127  0.22202136    -0.06210
C767        C  0.21503458  0.87284580  0.23973207    -0.00270
C768        C  0.24299498  0.91805768  0.24226419    -0.08740
C769        C  0.23126567  0.95046467  0.25279582     0.61640
H770        H  0.30748518  0.96730087  0.23808159     0.12330
H771        H  0.20863088  0.81938338  0.21545152     0.12350
C772        C  0.28515226  0.84226015  0.19656194     0.61870
F773        F  0.26446603  0.99133470  0.25228770    -0.23290
F774        F  0.21732199  0.94247782  0.27974483    -0.20620
F775        F  0.20205544  0.95061697  0.23605136    -0.20300
F776        F  0.31348524  0.83657537  0.21097887    -0.20350
F777        F  0.30350413  0.86321324  0.17221994    -0.20680
F778        F  0.25265127  0.80277758  0.18990313    -0.23350
C779        C  0.10182766  0.71867431  0.37974112    -0.06190
C780        C  0.09057455  0.70968452  0.40740176    -0.00260
C781        C  0.10683260  0.74354617  0.42671194    -0.08830
C782        C  0.13344233  0.78493890  0.41701505    -0.06210
C783        C  0.14295435  0.79498031  0.38876182    -0.00270
C784        C  0.13203782  0.75881239  0.37065240    -0.08740
C785        C  0.15253452  0.75558474  0.34357496     0.61640
H786        H  0.09026334  0.69255554  0.36516125     0.12330
H787        H  0.14576468  0.81047780  0.43164020     0.12350
C788        C  0.09606329  0.73694312  0.45734307     0.61870
F789        F  0.16018413  0.72211436  0.34513088    -0.23290
F790        F  0.19004373  0.78977756  0.33749467    -0.20620
F791        F  0.12617889  0.74734659  0.32196319    -0.20300
F792        F  0.11017795  0.71174984  0.46825670    -0.20350
F793        F  0.05369495  0.71810249  0.46127110    -0.20680
F794        F  0.11377620  0.77468520  0.47189693    -0.23350
C795        C  0.10478778  0.84910508  0.40421686    -0.06190
C796        C  0.14291511  0.86930412  0.38897205    -0.00260
C797        C  0.15656195  0.91223939  0.37988407    -0.08830
C798        C  0.13090383  0.92980143  0.38511297    -0.06210
C799        C  0.09391397  0.90912290  0.40014732    -0.00270
C800        C  0.08131829  0.86871220  0.41098006    -0.08740
C801        C  0.04353082  0.84613567  0.42997425     0.61640
H802        H  0.09152572  0.81688588  0.41045797     0.12330
H803        H  0.13924146  0.96034799  0.37652915     0.12350
C804        C  0.19554746  0.94087186  0.36270657     0.61870
F805        F  0.04160480  0.81126672  0.44246540    -0.23290
F806        F  0.00794726  0.83233989  0.41516657    -0.20620
F807        F  0.04498552  0.87340081  0.45067405    -0.20300
F808        F  0.18788788  0.93159898  0.33508829    -0.20350
F809        F  0.22927891  0.93798752  0.37003872    -0.20680
F810        F  0.20717544  0.98316171  0.36613944    -0.23350
C811        C  0.23311931  0.84353413  0.38858440    -0.06190
C812        C  0.20909171  0.86277266  0.39555772    -0.00260
C813        C  0.22686327  0.89611646  0.41605945    -0.08830
C814        C  0.26980951  0.91588420  0.42030980    -0.06210
C815        C  0.29427051  0.89973876  0.40946641    -0.00270
C816        C  0.27505143  0.86126552  0.39466297    -0.08740
C817        C  0.29801791  0.83814791  0.38561157     0.61640
H818        H  0.21895553  0.81414683  0.37779300     0.12330
H819        H  0.28443630  0.94373146  0.43334351     0.12350
C820        C  0.20401017  0.91092239  0.43591479     0.61870
F821        F  0.27175537  0.79838026  0.37499396    -0.23290
F822        F  0.31740195  0.83293044  0.40789037    -0.20620
F823        F  0.32703177  0.86097816  0.36525425    -0.20300
F824        F  0.16435570  0.87981591  0.44207665    -0.20350
F825        F  0.20412231  0.94603067  0.42557775    -0.20680
F826        F  0.22361512  0.92248934  0.46100869    -0.23350
C827        C  0.20742488  0.86840019  0.33474664    -0.06190
C828        C  0.16851408  0.84718167  0.34851666    -0.00260
C829        C  0.13279765  0.82881273  0.33154066    -0.08830
C830        C  0.13870012  0.82788937  0.30303279    -0.06210
C831        C  0.17726919  0.84867434  0.28869971    -0.00270
C832        C  0.21342567  0.86832009  0.30586734    -0.08740
C833        C  0.25910037  0.88572165  0.29751271     0.61640
H834        H  0.23467702  0.88460693  0.34684929     0.12330
H835        H  0.11148364  0.81407911  0.29095970     0.12350
C836        C  0.08788635  0.81309251  0.34147344     0.61870
F837        F  0.27931517  0.87646040  0.31746648    -0.23290
F838        F  0.27874914  0.92919694  0.29524793    -0.20620
F839        F  0.26516570  0.86825281  0.27393423    -0.20300
F840        F  0.08317080  0.84739880  0.34827907    -0.20350
F841        F  0.07608511  0.78599097  0.36348188    -0.20680
F842        F  0.05945968  0.79090562  0.32125811    -0.23350
C843        C  0.25401914  0.62114930  0.11913938    -0.06190
C844        C  0.28851413  0.64507689  0.13667634    -0.00260
C845        C  0.27632872  0.64419149  0.16562105    -0.08830
C846        C  0.23533193  0.63442462  0.17231355    -0.06210
C847        C  0.20306845  0.61091574  0.15448396    -0.00270
C848        C  0.21261449  0.60028675  0.12855381    -0.08740
C849        C  0.17987160  0.56348241  0.11224554     0.61640
H850        H  0.25842274  0.61449653  0.09810154     0.12330
H851        H  0.22734617  0.63896870  0.19329337     0.12350
C852        C  0.29815312  0.64188050  0.19122802     0.61870
F853        F  0.19757333  0.54881199  0.09276316    -0.23290
F854        F  0.15494054  0.57576325  0.09938070    -0.20620
F855        F  0.15571576  0.52986848  0.12960345    -0.20300
F856        F  0.31122853  0.67834891  0.20675909    -0.20350
F857        F  0.33038139  0.63452775  0.18579497    -0.20680
F858        F  0.27054706  0.60827130  0.20759584    -0.23350
C859        C  0.38079772  0.79297765  0.12827376    -0.06190
C860        C  0.39412751  0.80153751  0.15530354    -0.00260
C861        C  0.38843626  0.76739665  0.17182409    -0.08830
C862        C  0.36774467  0.72646140  0.16044689    -0.06210
C863        C  0.35859865  0.71721357  0.13218676    -0.00270
C864        C  0.37261625  0.75497362  0.11522329    -0.08740
C865        C  0.38950650  0.76440310  0.08539369     0.61640
H866        H  0.38505906  0.81916963  0.11557390     0.12330
H867        H  0.36454029  0.70175120  0.17319628     0.12350
C868        C  0.40456068  0.77325487  0.20100967     0.61870
F869        F  0.42687130  0.80209110  0.08448138    -0.23290
F870        F  0.36254696  0.76961274  0.06918648    -0.20620
F871        F  0.39847318  0.73562846  0.07372334    -0.20300
F872        F  0.38683671  0.79154111  0.21752784    -0.20350
F873        F  0.44711778  0.79851012  0.20045869    -0.20680
F874        F  0.39555395  0.73537129  0.21308512    -0.23350
C875        C  0.39841442  0.66770702  0.14316019    -0.06190
C876        C  0.35710602  0.64342925  0.13420102    -0.00260
C877        C  0.33929914  0.59781086  0.13509510    -0.08830
C878        C  0.36347368  0.58094080  0.14459637    -0.06210
C879        C  0.40527902  0.60593424  0.15050682    -0.00270
C880        C  0.42280765  0.65033622  0.15061546    -0.08740
C881        C  0.46738398  0.68011491  0.15794531     0.61640
H882        H  0.41425800  0.70153916  0.14124884     0.12330
H883        H  0.35017672  0.54705820  0.14604504     0.12350
C884        C  0.29670231  0.56515131  0.12491122     0.61870
F885        F  0.47607502  0.72156756  0.16120268    -0.23290
F886        F  0.49352572  0.67930793  0.13746595    -0.20620
F887        F  0.47509231  0.66758692  0.18255320    -0.20300
F888        F  0.29101482  0.57507397  0.09875021    -0.20350
F889        F  0.26631372  0.56205318  0.14317990    -0.20680
F890        F  0.29171268  0.52490452  0.12289535    -0.23350
C891        C  0.22077813  0.60795674  0.45398805    -0.06190
C892        C  0.19049953  0.59554532  0.47504591    -0.00260
C893        C  0.20213922  0.59668385  0.00245171    -0.08830
C894        C  0.24413631  0.61360199  0.00782395    -0.06210
C895        C  0.27586289  0.63625528  0.48784714    -0.00270
C896        C  0.26333929  0.62696891  0.45951240    -0.08740
C897        C  0.29241232  0.63422018  0.43482978     0.61640
H898        H  0.21072080  0.60339668  0.43289996     0.12330
H899        H  0.25183918  0.61086034  0.02856841     0.12350
C900        C  0.17100824  0.58127285  0.02631364     0.61870
F901        F  0.27218101  0.62511567  0.41002171    -0.23290
F902        F  0.30945133  0.60829195  0.43634417    -0.20620
F903        F  0.32316785  0.67548357  0.43345245    -0.20300
F904        F  0.13990064  0.54026441  0.02155371    -0.20350
F905        F  0.15444128  0.60761931  0.02992992    -0.20680
F906        F  0.18930014  0.58173461  0.05059642    -0.23350
C907        C  0.38300193  0.73745164  0.50291622    -0.06190
C908        C  0.34351599  0.71286508  0.49065963    -0.00260
C909        C  0.32965772  0.73611155  0.47394368    -0.08830
C910        C  0.35877714  0.77794314  0.46647390    -0.06210
C911        C  0.39711450  0.80048756  0.47872474    -0.00270
C912        C  0.40914392  0.78073508  0.49793101    -0.08740
C913        C  0.45047964  0.80498008  0.51190243     0.61640
H914        H  0.39448280  0.72197944  0.51591926     0.12330
H915        H  0.35019929  0.79487474  0.45228448     0.12350
C916        C  0.28598621  0.72418043  0.46512917     0.61870
F917        F  0.45753632  0.77956515  0.52924831    -0.23290
F918        F  0.45161637  0.83774178  0.02738022    -0.20620
F919        F  0.48194283  0.82146698  0.49214912    -0.20300
F920        F  0.27976333  0.75837998  0.96931990    -0.20370
F921        F  0.25463488  0.69209102  0.47971068    -0.20680
F922        F  0.28152846  0.71450256  0.43733611    -0.23350
C923        C  0.32574593  0.59742374  0.49132640    -0.06190
C924        C  0.34557076  0.64168991  0.48558252    -0.00260
C925        C  0.38702683  0.65987944  0.47357053    -0.08830
C926        C  0.40788713  0.63657375  0.47506060    -0.06210
C927        C  0.38854122  0.59415848  0.48295372    -0.00270
C928        C  0.34585268  0.57345282  0.48998345    -0.08740
C929        C  0.32139318  0.52678720  0.49760633     0.61640
H930        H  0.29464856  0.58196641  0.49969114     0.12330
H931        H  0.44003900  0.65147522  0.46829389     0.12350
C932        C  0.41254835  0.70067101  0.45703565     0.61870
F933        F  0.28091774  0.51411166  0.50543624    -0.23290
F934        F  0.33952552  0.51887205  0.51950161    -0.20620
F935        F  0.32011852  0.50239089  0.47511005    -0.20300
F936        F  0.44644326  0.72860345  0.97205139    -0.20350
F937        F  0.39196508  0.72076284  0.44889179    -0.20680
F938        F  0.42705745  0.69129312  0.43284785    -0.23350
C939        C  0.34664388  0.64930183  0.04389150    -0.06190
C940        C  0.32278463  0.66472760  0.03134055    -0.00260
C941        C  0.30537992  0.68349908  0.05021842    -0.08830
C942        C  0.31035942  0.68165572  0.07883290    -0.06210
C943        C  0.33388656  0.66574806  0.09088906    -0.00270
C944        C  0.35634658  0.65326740  0.07188991    -0.08740
C945        C  0.39698421  0.65360588  0.07764383     0.61640
H946        H  0.36247270  0.63731430  0.03147979     0.12330
H947        H  0.29644600  0.69434358  0.09306245     0.12350
C948        C  0.28244503  0.70711582  0.04241520     0.61870
F949        F  0.41958783  0.65643283  0.05378619    -0.23290
F950        F  0.38949797  0.61700404  0.09040011    -0.20620
F951        F  0.42316071  0.68875095  0.09268486    -0.20300
F952        F  0.24635684  0.68114461  0.02932120    -0.20350
F953        F  0.30717090  0.74193658  0.02651346    -0.20680
F954        F  0.27089954  0.72260935  0.06519987    -0.23350
C955        C  0.32150458  0.66452450  0.49803177    -0.02890
C956        C  0.33500385  0.66770036  0.62346277    -0.02890
C957        C  0.16587496  0.84389160  0.88073045    -0.02890
C958        C  0.17249949  0.84717950  0.75610809    -0.02890
N959        N  0.05179834  0.59951427  0.91456755    -0.06520
N960        N  0.06858361  0.63346167  0.89880921    -0.58640
N961        N  0.08624760  0.56939150  0.96690538    -0.06200
N962        N  0.11830835  0.58324073  0.98304897    -0.60770
N963        N  0.09526582  0.55909774  0.94264121    -0.05800
N964        N  0.13323198  0.56547004  0.94181900    -0.58620
N965        N  0.04157258  0.60874318  0.93882590    -0.05480
N966        N  0.05090027  0.64867510  0.93984858    -0.61120
C967        C  0.06765358  0.66397775  0.91479818     0.95650
C968        C  0.14725551  0.58018957  0.96722073     0.95430
N969        N  0.47773215  0.98960052  0.51207462    -0.06710
N970        N  0.47131515  0.97484197  0.53760337    -0.59220
N971        N  0.46577346  0.56359466  0.97995410    -0.04830
N972        N  0.45622047  0.59403741  0.98094860    -0.60470
N973        N  0.43197919  0.52648534  0.98080352    -0.06740
N974        N  0.39900865  0.53088572  0.98234576    -0.59490
N975        N  0.01192002  0.52652006  0.51079266    -0.04470
N976        N  0.02928016  0.53740876  0.53522798    -0.60560
Mn977      Mn  0.02683473  0.56779630  0.97457514     1.18440
C978        C  0.00400615  0.50470344  0.55178748     0.97730
C979        C  0.41424931  0.57311694  0.98263013     0.98400
N980        N  0.05468822  0.98005143  0.90452854    -0.06760
N981        N  0.08677431  0.97399333  0.90311742    -0.63070
N982        N  0.47730607  0.98279349  0.87342663    -0.05560
N983        N  0.46284975  0.97282252  0.84808750    -0.63740
N984        N  0.01152846  0.51975506  0.87325674    -0.06270
N985        N  0.02081039  0.53544806  0.84801940    -0.63330
N986        N  0.02021431  0.94353365  0.90536139    -0.05160
N987        N  0.02801660  0.91195297  0.90453607    -0.64020
Mn988      Mn  0.05380346  0.54018391  0.90820009     1.10660
C989        C  0.06968560  0.93130525  0.90331157     0.98960
C990        C  0.49000989  0.50627874  0.83248852     0.99030
N991        N  0.39107458  0.94726637  0.94188217    -0.06270
N992        N  0.35169564  0.93680847  0.94265652    -0.61650
N993        N  0.44508337  0.89899973  0.94638651    -0.05590
N994        N  0.43606105  0.85910836  0.94599251    -0.58380
N995        N  0.43650472  0.90911834  0.97091808    -0.06900
N996        N  0.42136305  0.87618632  0.98753733    -0.61210
N997        N  0.40124692  0.93851508  0.91742032    -0.05890
N998        N  0.36901843  0.92175259  0.90129067    -0.58400
Mn999      Mn  0.43374806  0.96750850  0.97701742     1.20190
Mn1000     Mn  0.46036962  0.94038789  0.91013005     1.10090
Cl1001     Cl  0.49358943  0.50398931  0.94244649    -0.86370
C1002       C  0.33830378  0.92089582  0.91720726     0.95960
C1003       C  0.42221877  0.84554806  0.97191270     0.95760
N1004       N  0.44314861  0.53439745  0.65705684    -0.06520
N1005       N  0.41156808  0.54094372  0.65526810    -0.58640
N1006       N  0.01972994  0.52999058  0.62329317    -0.06200
N1007       N  0.03400226  0.53940373  0.59746510    -0.60770
N1008       N  0.48515326  0.99326896  0.62378926    -0.05800
N1009       N  0.47559614  0.97720443  0.59868539    -0.58620
N1010       N  0.47789479  0.57051703  0.65751293    -0.05480
N1011       N  0.47069436  0.60232979  0.65580900    -0.61120
C1012       C  0.42909776  0.58361027  0.65464648     0.95650
C1013       C  0.00641269  0.50580653  0.58237774     0.95430
N1014       N  0.10562980  0.56401342  0.68950294    -0.06710
N1015       N  0.14533232  0.57563974  0.68959925    -0.59220
N1016       N  0.05215375  0.61314405  0.69829886    -0.04830
N1017       N  0.06031136  0.65283112  0.70000520    -0.60470
N1018       N  0.06058635  0.60160069  0.72175098    -0.06740
N1019       N  0.07493650  0.63321379  0.73957768    -0.59490
N1020       N  0.09630773  0.57415763  0.66585448    -0.04470
N1021       N  0.12938807  0.59267654  0.64950033    -0.60560
Mn1022     Mn  0.03713656  0.57258410  0.66070325     1.18440
C1023       C  0.15965196  0.59315933  0.66445741     0.97730
C1024       C  0.07372315  0.66468127  0.72604162     0.98400
N1025       N  0.43999787  0.91284563  0.66395780    -0.06760
N1026       N  0.41986362  0.87894900  0.64834847    -0.63070
N1027       N  0.40618935  0.94332530  0.71813176    -0.05560
N1028       N  0.37142262  0.92531748  0.73308703    -0.63740
N1029       N  0.39952500  0.95557815  0.69435241    -0.06270
N1030       N  0.36100726  0.94694719  0.69270221    -0.63330
N1031       N  0.44854366  0.90216447  0.68762836    -0.05160
N1032       N  0.43456856  0.86116033  0.68838803    -0.64020
Mn1033     Mn  0.44206350  0.97385266  0.65942960     1.10660
C1034       C  0.41681534  0.84682351  0.66381907     0.98960
C1035       C  0.34391330  0.92841471  0.71687663     0.99030
N1036       N  0.01749912  0.52056592  0.76128356    -0.06270
N1037       N  0.02481754  0.53551494  0.78681484    -0.61650
N1038       N  0.02580975  0.94476347  0.72658982    -0.05590
N1039       N  0.03323015  0.91295909  0.72887916    -0.58380
N1040       N  0.06076065  0.98107726  0.72683650    -0.06900
N1041       N  0.09242916  0.97472524  0.72937367    -0.61210
N1042       N  0.48230345  0.98457415  0.76065823    -0.05890
N1043       N  0.46530321  0.97439410  0.78572923    -0.58400
Mn1044     Mn  0.06164142  0.54207786  0.72525298     1.20190
Mn1045     Mn  0.46542036  0.94323104  0.72380029     1.10090
Cl1046     Cl  0.50174780  0.50786701  0.69224436    -0.86370
C1047       C  0.49182699  0.50672309  0.80184975     0.95960
C1048       C  0.07495884  0.93216665  0.73043987     0.95760
C1049       C  0.13901209  0.72671073  0.73901048    -0.06190
C1050       C  0.09696912  0.70930950  0.73502762    -0.00260
C1051       C  0.07842019  0.73374948  0.74145257    -0.08830
C1052       C  0.10393761  0.77750064  0.74548064    -0.06210
C1053       C  0.14751224  0.79704729  0.74955881    -0.00270
C1054       C  0.16288557  0.76724389  0.75052148    -0.08740
C1055       C  0.20094058  0.77229709  0.76492832     0.61640
H1056       H  0.15244256  0.70650110  0.73558961     0.12330
H1057       H  0.08834794  0.79553632  0.74800674     0.12350
C1058       C  0.03245074  0.71285184  0.74761642     0.61870
F1059       F  0.19363860  0.73376050  0.77510692    -0.23290
F1060       F  0.21026620  0.79777733  0.78736010    -0.20620
F1061       F  0.23468822  0.78684680  0.74718810    -0.20300
F1062       F  0.02304400  0.68729713  0.77052384    -0.20350
F1063       F  0.01080894  0.68819754  0.72577159    -0.20680
F1064       F  0.01955110  0.74198576  0.75297079    -0.23350
C1065       C  0.13571828  0.89133739  0.76831996    -0.06190
C1066       C  0.14535013  0.86849597  0.74787563    -0.00260
C1067       C  0.12919028  0.86722011  0.72073341    -0.08830
C1068       C  0.10569141  0.88745717  0.71636544    -0.06210
C1069       C  0.09818708  0.91014107  0.73693914    -0.00270
C1070       C  0.11373933  0.91253233  0.76328194    -0.08740
C1071       C  0.10811190  0.93870438  0.78600827     0.61640
H1072       H  0.14762155  0.89569372  0.78864193     0.12330
H1073       H  0.09338927  0.88612618  0.69613586     0.12350
C1074       C  0.13307310  0.84492323  0.69494605     0.61870
F1075       F  0.12221522  0.93426518  0.81111242    -0.23290
F1076       F  0.06671294  0.92633752  0.78947322    -0.20620
F1077       F  0.12991925  0.48101722  0.77893949    -0.20300
F1078       F  0.09391572  0.81535251  0.68649801    -0.20350
F1079       F  0.15469077  0.82418308  0.69796203    -0.20680
F1080       F  0.15243142  0.87431913  0.67413718    -0.23350
C1081       C  0.28492067  0.93447177  0.73440046    -0.06190
C1082       C  0.29940165  0.90923035  0.72260284    -0.00260
C1083       C  0.27100874  0.86817289  0.71381626    -0.08830
C1084       C  0.22928018  0.85106126  0.72202145    -0.06210
C1085       C  0.21503460  0.87284585  0.73973213    -0.00270
C1086       C  0.24299504  0.91805772  0.74226425    -0.08740
C1087       C  0.23126578  0.95046475  0.75279587     0.61640
H1088       H  0.30748526  0.96730086  0.73808163     0.12330
H1089       H  0.20863085  0.81938338  0.71545160     0.12350
C1090       C  0.28515220  0.84226007  0.69656202     0.61870
F1091       F  0.26446618  0.99133476  0.75228777    -0.23290
F1092       F  0.21732207  0.94247791  0.77974487    -0.20620
F1093       F  0.20205560  0.95061712  0.73605139    -0.20300
F1094       F  0.31348518  0.83657528  0.71097895    -0.20350
F1095       F  0.30350407  0.86321313  0.67222001    -0.20680
F1096       F  0.25265119  0.80277750  0.68990323    -0.23350
C1097       C  0.10182718  0.71867417  0.87974110    -0.06190
C1098       C  0.09057408  0.70968438  0.90740174    -0.00260
C1099       C  0.10683216  0.74354601  0.92671192    -0.08830
C1100       C  0.13344191  0.78493874  0.91701504    -0.06210
C1101       C  0.14295393  0.79498016  0.88876181    -0.00270
C1102       C  0.13203736  0.75881224  0.87065239    -0.08740
C1103       C  0.15253403  0.75558458  0.84357492     0.61640
H1104       H  0.09026283  0.69255540  0.86516123     0.12330
H1105       H  0.14576428  0.81047763  0.93164020     0.12350
C1106       C  0.09606288  0.73694296  0.95734306     0.61870
F1107       F  0.16018358  0.72211416  0.84513082    -0.23290
F1108       F  0.19004327  0.78977738  0.83749464    -0.20620
F1109       F  0.12617840  0.74734650  0.82196316    -0.20300
F1110       F  0.11017751  0.71174963  0.96825667    -0.20350
F1111       F  0.05369455  0.71810237  0.96127111    -0.20680
F1112       F  0.11377583  0.77468503  0.97189693    -0.23350
C1113       C  0.10478742  0.84910495  0.90421685    -0.06190
C1114       C  0.14291477  0.86930400  0.88897207    -0.00260
C1115       C  0.15656167  0.91223930  0.87988414    -0.08830
C1116       C  0.13090358  0.92980138  0.88511306    -0.06210
C1117       C  0.09391369  0.90912284  0.90014739    -0.00270
C1118       C  0.08131796  0.86871210  0.91098007    -0.08740
C1119       C  0.04353048  0.84613556  0.92997425     0.61640
H1120       H  0.09152531  0.81688573  0.91045792     0.12330
H1121       H  0.13924125  0.96034797  0.87652928     0.12350
C1122       C  0.19554721  0.94087176  0.86270665     0.61870
F1123       F  0.04160443  0.81126658  0.94246539    -0.23290
F1124       F  0.00794693  0.83233980  0.91516656    -0.20620
F1125       F  0.04498517  0.87340067  0.95067406    -0.20300
F1126       F  0.18788766  0.93159888  0.83508838    -0.20350
F1127       F  0.22927863  0.93798742  0.87003883    -0.20680
F1128       F  0.20717519  0.98316162  0.86613951    -0.23350
C1129       C  0.23311890  0.84353387  0.88858443    -0.06190
C1130       C  0.20909132  0.86277243  0.89555776    -0.00260
C1131       C  0.22686290  0.89611621  0.91605950    -0.08830
C1132       C  0.26980913  0.91588394  0.92030983    -0.06210
C1133       C  0.29427012  0.89973849  0.90946642    -0.00270
C1134       C  0.27505101  0.86126525  0.89466299    -0.08740
C1135       C  0.29801748  0.83814761  0.88561160     0.61640
H1136       H  0.21895510  0.81414659  0.87779300     0.12330
H1137       H  0.28443593  0.94373120  0.93334354     0.12350
C1138       C  0.20400981  0.91092214  0.93591486     0.61870
F1139       F  0.27175492  0.79837997  0.87499399    -0.23290
F1140       F  0.31740152  0.83293014  0.90789040    -0.20620
F1141       F  0.32703134  0.86097785  0.86525428    -0.20300
F1142       F  0.16435530  0.87981572  0.94207666    -0.20350
F1143       F  0.20412207  0.94603051  0.92557786    -0.20680
F1144       F  0.22361472  0.92248896  0.96100877    -0.23350
C1145       C  0.20742466  0.86840012  0.83474671    -0.06190
C1146       C  0.16851382  0.84718160  0.84851668    -0.00260
C1147       C  0.13279744  0.82881274  0.83154064    -0.08830
C1148       C  0.13869999  0.82788944  0.80303278    -0.06210
C1149       C  0.17726910  0.84867440  0.78869974    -0.00270
C1150       C  0.21342553  0.86832009  0.80586742    -0.08740
C1151       C  0.25910026  0.88572170  0.79751283     0.61640
H1152       H  0.23467677  0.88460684  0.84684939     0.12330
H1153       H  0.11148354  0.81407926  0.79095966     0.12350
C1154       C  0.08788612  0.81309255  0.84147337     0.61870
F1155       F  0.27931502  0.87646043  0.81746662    -0.23290
F1156       F  0.27874902  0.92919699  0.79524809    -0.20620
F1157       F  0.26516568  0.86825292  0.77393435    -0.20300
F1158       F  0.08317061  0.84739885  0.84827903    -0.20350
F1159       F  0.07608480  0.78599096  0.86348179    -0.20680
F1160       F  0.05945950  0.79090574  0.82125801    -0.23350
C1161       C  0.25401910  0.62114945  0.61913944    -0.06190
C1162       C  0.28851413  0.64507705  0.63667636    -0.00260
C1163       C  0.27632877  0.64419165  0.66562108    -0.08830
C1164       C  0.23533202  0.63442485  0.67231363    -0.06210
C1165       C  0.20306850  0.61091598  0.65448406    -0.00270
C1166       C  0.21261447  0.60028694  0.62855391    -0.08740
C1167       C  0.17987156  0.56348260  0.61224565     0.61640
H1168       H  0.25842264  0.61449663  0.59810161     0.12330
H1169       H  0.22734630  0.63896894  0.69329345     0.12350
C1170       C  0.29815318  0.64188055  0.69122802     0.61870
F1171       F  0.19757330  0.54881182  0.59276353    -0.23290
F1172       F  0.15494086  0.57576362  0.59938053    -0.20620
F1173       F  0.15571536  0.52986883  0.62960360    -0.20300
F1174       F  0.31122860  0.67834891  0.70675916    -0.20350
F1175       F  0.33038144  0.63452781  0.68579492    -0.20680
F1176       F  0.27054710  0.60827129  0.70759580    -0.23350
C1177       C  0.38079764  0.79297784  0.62827381    -0.06190
C1178       C  0.39412757  0.80153767  0.65530355    -0.00260
C1179       C  0.38843629  0.76739678  0.67182408    -0.08830
C1180       C  0.36774464  0.72646160  0.66044683    -0.06210
C1181       C  0.35859861  0.71721375  0.63218673    -0.00270
C1182       C  0.37261607  0.75497383  0.61522327    -0.08740
C1183       C  0.38950578  0.76440336  0.58539355     0.61640
H1184       H  0.38505885  0.81916984  0.61557401     0.12330
H1185       H  0.36454012  0.70175102  0.67319638     0.12350
C1186       C  0.40456069  0.77325496  0.70100966     0.61870
F1187       F  0.42687050  0.80209144  0.58448104    -0.23290
F1188       F  0.36254585  0.76961292  0.56918669    -0.20620
F1189       F  0.39847241  0.73562887  0.57372290    -0.20300
F1190       F  0.38683676  0.79154124  0.71752783    -0.20350
F1191       F  0.44711780  0.79851016  0.70045869    -0.20680
F1192       F  0.39555390  0.73537136  0.71308510    -0.23350
C1193       C  0.39841434  0.66770708  0.64316028    -0.06190
C1194       C  0.35710600  0.64342937  0.63420098    -0.00260
C1195       C  0.33929919  0.59781096  0.63509485    -0.08830
C1196       C  0.36347372  0.58094085  0.64459604    -0.06210
C1197       C  0.40527899  0.60593426  0.65050667    -0.00270
C1198       C  0.42280756  0.65033624  0.65061550    -0.08740
C1199       C  0.46738383  0.68011488  0.65794550     0.61640
H1200       H  0.41425790  0.70153923  0.64124910     0.12330
H1201       H  0.35017681  0.54705824  0.64604454     0.12350
C1202       C  0.29670236  0.56515147  0.62491094     0.61870
F1203       F  0.47607482  0.72156750  0.66120303    -0.23290
F1204       F  0.49352571  0.67930811  0.63746617    -0.20620
F1205       F  0.47509199  0.66758666  0.68255336    -0.20300
F1206       F  0.29101486  0.57507423  0.59874996    -0.20350
F1207       F  0.26631378  0.56205328  0.64317966    -0.20680
F1208       F  0.29171271  0.52490468  0.62289499    -0.23350
C1209       C  0.22077774  0.60795681  0.95398816    -0.06190
C1210       C  0.19049917  0.59554555  0.97504603    -0.00260
C1211       C  0.20213951  0.59668334  0.50245157    -0.08830
C1212       C  0.24413661  0.61360165  0.50782384    -0.06210
C1213       C  0.27586258  0.63625541  0.98784721    -0.00270
C1214       C  0.26333891  0.62696900  0.95951248    -0.08740
C1215       C  0.29241188  0.63422022  0.93482983     0.61640
H1216       H  0.21072037  0.60339661  0.93290008     0.12330
H1217       H  0.25183948  0.61085996  0.52856830     0.12350
C1218       C  0.17100844  0.58127186  0.52631344     0.61870
F1219       F  0.27218057  0.62511594  0.91002176    -0.23290
F1220       F  0.30945066  0.60829177  0.93634412    -0.20620
F1221       F  0.32316759  0.67548353  0.93345256    -0.20300
F1222       F  0.13990084  0.54026353  0.52155318    -0.20350
F1223       F  0.15444148  0.60761828  0.52993006    -0.20680
F1224       F  0.18930023  0.58173303  0.55059615    -0.23350
C1225       C  0.38300171  0.73745161  0.00291623    -0.06190
C1226       C  0.34351577  0.71286508  0.99065965    -0.00260
C1227       C  0.32965749  0.73611158  0.97394372    -0.08830
C1228       C  0.35877694  0.77794315  0.96647393    -0.06210
C1229       C  0.39711431  0.80048754  0.97872478    -0.00270
C1230       C  0.40914372  0.78073504  0.99793103    -0.08740
C1231       C  0.45047943  0.80498002  0.01190247     0.61640
H1232       H  0.39448257  0.72197939  0.01591927     0.12330
H1233       H  0.35019911  0.79487477  0.95228452     0.12350
C1234       C  0.28598598  0.72418050  0.96512924     0.61870
F1235       F  0.45753612  0.77956506  0.02924832    -0.23290
F1236       F  0.45161660  0.83774188  0.52738015    -0.20620
F1237       F  0.48194263  0.82146697  0.99214917    -0.20300
F1238       F  0.27976346  0.75837983  0.46931993    -0.20370
F1239       F  0.25463466  0.69209123  0.97971085    -0.20680
F1240       F  0.28152812  0.71450244  0.93733622    -0.23350
C1241       C  0.32574544  0.59742364  0.99132617    -0.06190
C1242       C  0.34557039  0.64168987  0.98558244    -0.00260
C1243       C  0.38702650  0.65987939  0.97357054    -0.08830
C1244       C  0.40788675  0.63657367  0.97506063    -0.06210
C1245       C  0.38854073  0.59415831  0.98295360    -0.00270
C1246       C  0.34585211  0.57345263  0.98998311    -0.08740
C1247       C  0.32139241  0.52678687  0.99760559     0.61640
H1248       H  0.29464803  0.58196631  0.99969085     0.12330
H1249       H  0.44003867  0.65147516  0.96829404     0.12350
C1250       C  0.41254810  0.70067097  0.95703569     0.61870
F1251       F  0.28091681  0.51411124  0.00543514    -0.23290
F1252       F  0.33952423  0.51887127  0.01950098    -0.20620
F1253       F  0.32011822  0.50239100  0.97510919    -0.20300
F1254       F  0.44644353  0.72860352  0.47205133    -0.20350
F1255       F  0.39196488  0.72076285  0.94889180    -0.20680
F1256       F  0.42705724  0.69129309  0.93284790    -0.23350
C1257       C  0.34664419  0.64930210  0.54389156    -0.06190
C1258       C  0.32278478  0.66472761  0.53134054    -0.00260
C1259       C  0.30537982  0.68349891  0.55021834    -0.08830
C1260       C  0.31035925  0.68165564  0.57883284    -0.06210
C1261       C  0.33388656  0.66574821  0.59088906    -0.00270
C1262       C  0.35634685  0.65326784  0.57188998    -0.08740
C1263       C  0.39698488  0.65360719  0.57764395     0.61640
H1264       H  0.36247328  0.63731478  0.53147991     0.12330
H1265       H  0.29644573  0.69434343  0.59306235     0.12350
C1266       C  0.28244472  0.70711541  0.54241504     0.61870
F1267       F  0.41958877  0.65643473  0.55378634    -0.23290
F1268       F  0.38949927  0.61700552  0.59040018    -0.20620
F1269       F  0.42316083  0.68875241  0.59268508    -0.20300
F1270       F  0.24635663  0.68114404  0.52932099    -0.20350
F1271       F  0.30717052  0.74193620  0.52651330    -0.20680
F1272       F  0.27089902  0.72260884  0.56519966    -0.23350
C1273       C  0.82150434  0.16452454  0.99803180    -0.02890
C1274       C  0.83500392  0.16770017  0.12346280    -0.02890
C1275       C  0.66587529  0.34389174  0.38073042    -0.02890
C1276       C  0.67249947  0.34717940  0.25610804    -0.02890
N1277       N  0.55179876  0.09951439  0.41456754    -0.06520
N1278       N  0.56858402  0.13346179  0.39880920    -0.58640
N1279       N  0.58624804  0.06939153  0.46690533    -0.06200
N1280       N  0.61830880  0.08324067  0.48304889    -0.60770
N1281       N  0.59526620  0.05909777  0.44264114    -0.05800
N1282       N  0.63323233  0.06546998  0.44181890    -0.58620
N1283       N  0.54157306  0.10874331  0.43882591    -0.05480
N1284       N  0.55090079  0.14867524  0.43984861    -0.61120
C1285       C  0.56765406  0.16397789  0.41479820     0.95650
C1286       C  0.64725590  0.08018946  0.46722062     0.95430
N1287       N  0.97773173  0.48960043  0.01207462    -0.06710
N1288       N  0.97131481  0.47484184  0.03760336    -0.59220
N1289       N  0.96577396  0.06359483  0.47995412    -0.04830
N1290       N  0.95622099  0.09403759  0.48094866    -0.60470
N1291       N  0.93197968  0.02648552  0.48080354    -0.06740
N1292       N  0.89900916  0.03088592  0.48234580    -0.59490
N1293       N  0.51191959  0.02651999  0.01079267    -0.04470
N1294       N  0.52927980  0.03740866  0.03522797    -0.60560
Mn1295     Mn  0.52683520  0.06779639  0.47457513     1.18440
C1296       C  0.50400585  0.00470331  0.05178746     0.97730
C1297       C  0.91424984  0.07311713  0.48263021     0.98400
N1298       N  0.55468849  0.48005148  0.40452848    -0.06760
N1299       N  0.58677458  0.47399338  0.40311735    -0.63070
N1300       N  0.97730635  0.48279359  0.37342661    -0.05560
N1301       N  0.96284998  0.47282259  0.34808749    -0.63740
N1302       N  0.51152876  0.01975516  0.37325670    -0.06270
N1303       N  0.52081066  0.03544813  0.34801936    -0.63330
N1304       N  0.52021458  0.44353371  0.40536135    -0.05160
N1305       N  0.52801687  0.41195303  0.40453603    -0.64020
Mn1306     Mn  0.55380381  0.04018399  0.40820004     1.10660
C1307       C  0.56968586  0.43130530  0.40331151     0.98960
C1308       C  0.99001012  0.00627880  0.33248850     0.99030
N1309       N  0.89107494  0.44726655  0.44188217    -0.06270
N1310       N  0.85169601  0.43680870  0.44265651    -0.61650
N1311       N  0.94508364  0.39899979  0.44638649    -0.05590
N1312       N  0.93606124  0.35910840  0.44599247    -0.58380
N1313       N  0.93650501  0.40911842  0.47091806    -0.06900
N1314       N  0.92136329  0.37618638  0.48753730    -0.61210
N1315       N  0.90124727  0.43851526  0.41742032    -0.05890
N1316       N  0.86901879  0.42175283  0.40129066    -0.58400
Mn1317     Mn  0.93374845  0.46750863  0.47701741     1.20190
Mn1318     Mn  0.96036992  0.44038800  0.41013003     1.10090
Cl1319     Cl  0.99358981  0.00398942  0.44244647    -0.86370
C1320       C  0.83830415  0.42089608  0.41720725     0.95960
C1321       C  0.92221895  0.34554810  0.47191266     0.95760
N1322       N  0.94314865  0.03439740  0.15705686    -0.06520
N1323       N  0.91156814  0.04094371  0.15526821    -0.58640
N1324       N  0.51972985  0.02999041  0.12329313    -0.06200
N1325       N  0.53400211  0.03940356  0.09746505    -0.60770
N1326       N  0.98515314  0.49326879  0.12378924    -0.05800
N1327       N  0.97559595  0.47720427  0.09868537    -0.58620
N1328       N  0.97789485  0.07051696  0.15751295    -0.05480
N1329       N  0.97069445  0.10232975  0.15580911    -0.61120
C1330       C  0.92909785  0.08361027  0.15464664     0.95650
C1331       C  0.50641248  0.00580637  0.08237771     0.95430
N1332       N  0.60562979  0.06401314  0.18950284    -0.06710
N1333       N  0.64533229  0.07563941  0.18959914    -0.59220
N1334       N  0.55215389  0.11314393  0.19829880    -0.04830
N1335       N  0.56031152  0.15283101  0.20000514    -0.60470
N1336       N  0.56058649  0.10160057  0.22175091    -0.06740
N1337       N  0.57493667  0.13321367  0.23957761    -0.59490
N1338       N  0.59630772  0.07415737  0.16585440    -0.04470
N1339       N  0.62938805  0.09267626  0.14950024    -0.60560
Mn1340     Mn  0.53713659  0.07258395  0.16070321     1.18440
C1341       C  0.65965193  0.09315898  0.16445729     0.97730
C1342       C  0.57372333  0.16468115  0.22604156     0.98400
N1343       N  0.93999770  0.41284547  0.16395779    -0.06760
N1344       N  0.91986347  0.37894883  0.14834845    -0.63070
N1345       N  0.90618929  0.44332527  0.21813176    -0.05560
N1346       N  0.87142255  0.42531748  0.23308702    -0.63740
N1347       N  0.89952497  0.45557813  0.19435240    -0.06270
N1348       N  0.86100724  0.44694721  0.19270220    -0.63330
N1349       N  0.94854348  0.40216431  0.18762835    -0.05160
N1350       N  0.93456841  0.36116018  0.18838803    -0.64020
Mn1351     Mn  0.94206342  0.47385255  0.15942959     1.10660
C1352       C  0.91681520  0.34682335  0.16381906     0.98960
C1353       C  0.84391326  0.42841475  0.21687662     0.99030
N1354       N  0.51749920  0.02056585  0.26128352    -0.06270
N1355       N  0.52481770  0.03551490  0.28681479    -0.61650
N1356       N  0.52580963  0.44476329  0.22658980    -0.05590
N1357       N  0.53322998  0.41295888  0.22887916    -0.58380
N1358       N  0.56076056  0.48107705  0.22683645    -0.06900
N1359       N  0.59242904  0.47472499  0.22937362    -0.61210
N1360       N  0.98230347  0.48457410  0.26065821    -0.05890
N1361       N  0.96530328  0.47439410  0.28572922    -0.58400
Mn1362     Mn  0.56164145  0.04207769  0.22525292     1.20190
Mn1363     Mn  0.96542027  0.44323093  0.22380028     1.10090
Cl1364     Cl  0.00174778  0.00786687  0.19224433    -0.86370
C1365       C  0.99182715  0.00672309  0.30184972     0.95960
C1366       C  0.57495868  0.43216640  0.23043985     0.95760
C1367       C  0.63901220  0.22671065  0.23901046    -0.06190
C1368       C  0.59696923  0.20930937  0.23502758    -0.00260
C1369       C  0.57842025  0.23374932  0.24145250    -0.08830
C1370       C  0.60393763  0.27750047  0.24548061    -0.06210
C1371       C  0.64751227  0.29704718  0.24955877    -0.00270
C1372       C  0.66288566  0.26724383  0.25052143    -0.08740
C1373       C  0.70094072  0.27229712  0.26492826     0.61640
H1374       H  0.65244271  0.20650105  0.23558958     0.12330
H1375       H  0.58834792  0.29553611  0.24800674     0.12350
C1376       C  0.53245079  0.21285162  0.24761633     0.61870
F1377       F  0.69363889  0.23376054  0.27510677    -0.23290
F1378       F  0.71026621  0.29777724  0.28736009    -0.20620
F1379       F  0.73468839  0.28684703  0.24718806    -0.20300
F1380       F  0.52304413  0.18729721  0.27052390    -0.20350
F1381       F  0.51080899  0.18819698  0.22577161    -0.20680
F1382       F  0.51955104  0.24198551  0.25297046    -0.23350
C1383       C  0.63571815  0.39133717  0.26831995    -0.06190
C1384       C  0.64535004  0.36849579  0.24787560    -0.00260
C1385       C  0.62919015  0.36721990  0.22073339    -0.08830
C1386       C  0.60569125  0.38745692  0.21636543    -0.06210
C1387       C  0.59818689  0.41014080  0.23693914    -0.00270
C1388       C  0.61373916  0.41253208  0.26328193    -0.08740
C1389       C  0.60811172  0.43870411  0.28600826     0.61640
H1390       H  0.64762144  0.39569353  0.28864191     0.12330
H1391       H  0.59338910  0.38612593  0.19613585     0.12350
C1392       C  0.63307300  0.34492305  0.19494602     0.61870
F1393       F  0.62221505  0.43426493  0.31111240    -0.23290
F1394       F  0.56671275  0.42633722  0.28947322    -0.20620
F1395       F  0.62991907  0.98101696  0.27893948    -0.20300
F1396       F  0.59391562  0.31535233  0.18649797    -0.20350
F1397       F  0.65469067  0.32418291  0.19796199    -0.20680
F1398       F  0.65243131  0.37431897  0.17413716    -0.23350
C1399       C  0.78492057  0.43447178  0.23440038    -0.06190
C1400       C  0.79940160  0.40923038  0.22260278    -0.00260
C1401       C  0.77100872  0.36817292  0.21381618    -0.08830
C1402       C  0.72928014  0.35106125  0.22202135    -0.06210
C1403       C  0.71503454  0.37284579  0.23973205    -0.00270
C1404       C  0.74299494  0.41805767  0.24226417    -0.08740
C1405       C  0.73126563  0.45046466  0.25279580     0.61640
H1406       H  0.80748514  0.46730087  0.23808155     0.12330
H1407       H  0.70863085  0.31938336  0.21545151     0.12350
C1408       C  0.78515222  0.34226013  0.19656194     0.61870
F1409       F  0.76446599  0.49133470  0.25228768    -0.23290
F1410       F  0.71732195  0.44247782  0.27974480    -0.20620
F1411       F  0.70205540  0.45061696  0.23605134    -0.20300
F1412       F  0.81348521  0.33657536  0.21097888    -0.20350
F1413       F  0.80350410  0.36321321  0.17221994    -0.20680
F1414       F  0.75265124  0.30277756  0.18990313    -0.23350
C1415       C  0.60182765  0.21867431  0.37974112    -0.06190
C1416       C  0.59057455  0.20968452  0.40740176    -0.00260
C1417       C  0.60683261  0.24354617  0.42671193    -0.08830
C1418       C  0.63344232  0.28493891  0.41701504    -0.06210
C1419       C  0.64295433  0.29498031  0.38876181    -0.00270
C1420       C  0.63203780  0.25881238  0.37065239    -0.08740
C1421       C  0.65253449  0.25558473  0.34357494     0.61640
H1422       H  0.59026333  0.19255553  0.36516125     0.12330
H1423       H  0.64576467  0.31047781  0.43164019     0.12350
C1424       C  0.59606332  0.23694313  0.45734307     0.61870
F1425       F  0.66018411  0.22211436  0.34513087    -0.23290
F1426       F  0.69004370  0.28977756  0.33749465    -0.20620
F1427       F  0.62617885  0.24734658  0.32196318    -0.20300
F1428       F  0.61017798  0.21174985  0.46825669    -0.20350
F1429       F  0.55369498  0.21810249  0.46127111    -0.20680
F1430       F  0.61377623  0.27468521  0.47189693    -0.23350
C1431       C  0.60478776  0.34910506  0.40421684    -0.06190
C1432       C  0.64291509  0.36930411  0.38897204    -0.00260
C1433       C  0.65656193  0.41223938  0.37988406    -0.08830
C1434       C  0.63090381  0.42980143  0.38511297    -0.06210
C1435       C  0.59391395  0.40912289  0.40014732    -0.00270
C1436       C  0.58131827  0.36871219  0.41098005    -0.08740
C1437       C  0.54353080  0.34613565  0.42997424     0.61640
H1438       H  0.59152570  0.31688587  0.41045795     0.12330
H1439       H  0.63924144  0.46034798  0.37652915     0.12350
C1440       C  0.69554744  0.44087185  0.36270656     0.61870
F1441       F  0.54160477  0.31126669  0.44246538    -0.23290
F1442       F  0.50794724  0.33233987  0.41516655    -0.20620
F1443       F  0.54498549  0.37340077  0.45067404    -0.20300
F1444       F  0.68788786  0.43159898  0.33508829    -0.20350
F1445       F  0.72927889  0.43798752  0.37003871    -0.20680
F1446       F  0.70717542  0.48316171  0.36613943    -0.23350
C1447       C  0.73311930  0.34353414  0.38858438    -0.06190
C1448       C  0.70909169  0.36277266  0.39555771    -0.00260
C1449       C  0.72686326  0.39611645  0.41605944    -0.08830
C1450       C  0.76980949  0.41588419  0.42030979    -0.06210
C1451       C  0.79427049  0.39973876  0.40946640    -0.00270
C1452       C  0.77505141  0.36126553  0.39466295    -0.08740
C1453       C  0.79801790  0.33814792  0.38561154     0.61640
H1454       H  0.71895552  0.31414684  0.37779297     0.12330
H1455       H  0.78443628  0.44373145  0.43334351     0.12350
C1456       C  0.70401015  0.41092238  0.43591478     0.61870
F1457       F  0.77175536  0.29838028  0.37499393    -0.23290
F1458       F  0.81740194  0.33293044  0.40789035    -0.20620
F1459       F  0.82703176  0.36097818  0.36525423    -0.20300
F1460       F  0.66435568  0.37981591  0.44207664    -0.20350
F1461       F  0.70412230  0.44603067  0.42557774    -0.20680
F1462       F  0.72361509  0.42248932  0.46100868    -0.23350
C1463       C  0.70742485  0.36840019  0.33474663    -0.06190
C1464       C  0.66851406  0.34718167  0.34851664    -0.00260
C1465       C  0.63279763  0.32881272  0.33154064    -0.08830
C1466       C  0.63870009  0.32788935  0.30303278    -0.06210
C1467       C  0.67726916  0.34867434  0.28869969    -0.00270
C1468       C  0.71342564  0.36832010  0.30586732    -0.08740
C1469       C  0.75910034  0.38572168  0.29751269     0.61640
H1470       H  0.73467699  0.38460694  0.34684928     0.12330
H1471       H  0.61148361  0.31407908  0.29095969     0.12350
C1472       C  0.58788632  0.31309250  0.34147343     0.61870
F1473       F  0.77931516  0.37646046  0.31746646    -0.23290
F1474       F  0.77874910  0.42919697  0.29524791    -0.20620
F1475       F  0.76516569  0.36825284  0.27393422    -0.20300
F1476       F  0.58317078  0.34739879  0.34827907    -0.20350
F1477       F  0.57608509  0.28599095  0.36348186    -0.20680
F1478       F  0.55945965  0.29090562  0.32125810    -0.23350
C1479       C  0.75401920  0.12114928  0.11913939    -0.06190
C1480       C  0.78851418  0.14507688  0.13667635    -0.00260
C1481       C  0.77632876  0.14419150  0.16562106    -0.08830
C1482       C  0.73533196  0.13442461  0.17231355    -0.06210
C1483       C  0.70306849  0.11091572  0.15448396    -0.00270
C1484       C  0.71261454  0.10028673  0.12855381    -0.08740
C1485       C  0.67987166  0.06348240  0.11224553     0.61640
H1486       H  0.75842281  0.11449651  0.09810155     0.12330
H1487       H  0.72734619  0.13896869  0.19329336     0.12350
C1488       C  0.79815316  0.14188054  0.19122804     0.61870
F1489       F  0.69757338  0.04881202  0.09276312    -0.23290
F1490       F  0.65494056  0.07576322  0.09938073    -0.20620
F1491       F  0.65571585  0.02986844  0.12960343    -0.20300
F1492       F  0.81122857  0.17834898  0.20675909    -0.20350
F1493       F  0.83038143  0.13452778  0.18579501    -0.20680
F1494       F  0.77054710  0.10827137  0.20759588    -0.23350
C1495       C  0.88079776  0.29297762  0.12827375    -0.06190
C1496       C  0.89412752  0.30153750  0.15530354    -0.00260
C1497       C  0.88843629  0.26739665  0.17182410    -0.08830
C1498       C  0.86774472  0.22646138  0.16044691    -0.06210
C1499       C  0.85859870  0.21721356  0.13218678    -0.00270
C1500       C  0.87261632  0.25497359  0.11522330    -0.08740
C1501       C  0.88950670  0.26440305  0.08539373     0.61640
H1502       H  0.88505913  0.31916959  0.11557388     0.12330
H1503       H  0.86454038  0.20175126  0.17319627     0.12350
C1504       C  0.90456071  0.27325489  0.20100968     0.61870
F1505       F  0.92687151  0.30209104  0.08448147    -0.23290
F1506       F  0.86254724  0.26961269  0.06918643    -0.20620
F1507       F  0.89847341  0.23562838  0.07372347    -0.20300
F1508       F  0.88683673  0.29154112  0.21752784    -0.20350
F1509       F  0.94711781  0.29851016  0.20045869    -0.20680
F1510       F  0.89555401  0.23537133  0.21308514    -0.23350
C1511       C  0.89841450  0.16770705  0.14316019    -0.06190
C1512       C  0.85710608  0.14342925  0.13420106    -0.00260
C1513       C  0.83929918  0.09781086  0.13509522    -0.08830
C1514       C  0.86347371  0.08094083  0.14459652    -0.06210
C1515       C  0.90527909  0.10593427  0.15050690    -0.00270
C1516       C  0.92280775  0.15033626  0.15061547    -0.08740
C1517       C  0.96738412  0.18011498  0.15794521     0.61640
H1518       H  0.91425808  0.20153918  0.14124878     0.12330
H1519       H  0.85017673  0.04705823  0.14604526     0.12350
C1520       C  0.79670235  0.06515130  0.12491134     0.61870
F1521       F  0.97607520  0.22156766  0.16120248    -0.23290
F1522       F  0.99352576  0.17930785  0.13746582    -0.20620
F1523       F  0.97509256  0.16758714  0.18255312    -0.20300
F1524       F  0.79101486  0.07507391  0.09875032    -0.20350
F1525       F  0.76631375  0.06205319  0.14318001    -0.20680
F1526       F  0.79171273  0.02490451  0.12289551    -0.23350
C1527       C  0.72077814  0.10795673  0.45398805    -0.06190
C1528       C  0.69049954  0.09554531  0.47504591    -0.00260
C1529       C  0.70213923  0.09668394  0.00245173    -0.08830
C1530       C  0.74413632  0.11360207  0.00782397    -0.06210
C1531       C  0.77586290  0.13625527  0.48784714    -0.00270
C1532       C  0.76333930  0.12696890  0.45951240    -0.08740
C1533       C  0.79241233  0.13422018  0.43482977     0.61640
H1534       H  0.71072081  0.10339667  0.43289996     0.12330
H1535       H  0.75183920  0.11086042  0.02856843     0.12350
C1536       C  0.67100826  0.08127298  0.02631366     0.61870
F1537       F  0.77218102  0.12511566  0.41002170    -0.23290
F1538       F  0.80945134  0.10829195  0.43634417    -0.20620
F1539       F  0.82316786  0.17548357  0.43345245    -0.20300
F1540       F  0.63990067  0.04026453  0.02155376    -0.20350
F1541       F  0.65444129  0.10761944  0.02992991    -0.20680
F1542       F  0.68930017  0.08173479  0.05059646    -0.23350
C1543       C  0.88300193  0.23745165  0.50291621    -0.06190
C1544       C  0.84351600  0.21286508  0.49065962    -0.00260
C1545       C  0.82965772  0.23611155  0.47394367    -0.08830
C1546       C  0.85877714  0.27794314  0.46647389    -0.06210
C1547       C  0.89711450  0.30048756  0.47872474    -0.00270
C1548       C  0.90914392  0.28073508  0.49793101    -0.08740
C1549       C  0.95047964  0.30498008  0.51190243     0.61640
H1550       H  0.89448281  0.22197945  0.51591926     0.12330
H1551       H  0.85019929  0.29487474  0.45228447     0.12350
C1552       C  0.78598622  0.22418042  0.46512916     0.61870
F1553       F  0.95753632  0.27956515  0.52924831    -0.23290
F1554       F  0.95161637  0.33774181  0.02738024    -0.20620
F1555       F  0.98194283  0.32146698  0.49214913    -0.20300
F1556       F  0.77976336  0.25838003  0.96931990    -0.20370
F1557       F  0.75463488  0.19209100  0.47971066    -0.20680
F1558       F  0.78152848  0.21450256  0.43733610    -0.23350
C1559       C  0.82574594  0.09742374  0.49132640    -0.06190
C1560       C  0.84557077  0.14168992  0.48558252    -0.00260
C1561       C  0.88702684  0.15987944  0.47357053    -0.08830
C1562       C  0.90788714  0.13657376  0.47506060    -0.06210
C1563       C  0.88854124  0.09415849  0.48295372    -0.00270
C1564       C  0.84585270  0.07345282  0.48998345    -0.08740
C1565       C  0.82139320  0.02678721  0.49760633     0.61640
H1566       H  0.79464858  0.08196642  0.49969114     0.12330
H1567       H  0.94003902  0.15147522  0.46829389     0.12350
C1568       C  0.91254836  0.20067101  0.45703565     0.61870
F1569       F  0.78091777  0.01411167  0.50543626    -0.23290
F1570       F  0.83952556  0.01887206  0.51950161    -0.20620
F1571       F  0.82011854  0.00239090  0.47511005    -0.20300
F1572       F  0.94644328  0.22860347  0.97205143    -0.20350
F1573       F  0.89196509  0.22076284  0.44889178    -0.20680
F1574       F  0.92705746  0.19129313  0.43284785    -0.23350
C1575       C  0.84664390  0.14930182  0.04389150    -0.06190
C1576       C  0.82278467  0.16472762  0.03134057    -0.00260
C1577       C  0.80538000  0.18349911  0.05021845    -0.08830
C1578       C  0.81035950  0.18165574  0.07883293    -0.06210
C1579       C  0.83388662  0.16574803  0.09088907    -0.00270
C1580       C  0.85634658  0.15326732  0.07188992    -0.08740
C1581       C  0.89698411  0.15360557  0.07764384     0.61640
H1582       H  0.86247270  0.13731429  0.03147977     0.12330
H1583       H  0.79644610  0.19434361  0.09306249     0.12350
C1584       C  0.78244512  0.20711589  0.04241525     0.61870
F1585       F  0.91958766  0.15643233  0.05378620    -0.23290
F1586       F  0.88949770  0.11700371  0.09040016    -0.20620
F1587       F  0.92316075  0.18875063  0.09268483    -0.20300
F1588       F  0.74635691  0.18114470  0.02932127    -0.20350
F1589       F  0.80717100  0.24193664  0.02651350    -0.20680
F1590       F  0.77089969  0.22260945  0.06519993    -0.23350
C1591       C  0.82150459  0.16452449  0.49803177    -0.02890
C1592       C  0.83500384  0.16770036  0.62346276    -0.02890
C1593       C  0.66587496  0.34389160  0.88073046    -0.02890
C1594       C  0.67249950  0.34717951  0.75610809    -0.02890
N1595       N  0.55179834  0.09951427  0.91456756    -0.06520
N1596       N  0.56858361  0.13346166  0.89880922    -0.58640
N1597       N  0.58624760  0.06939151  0.96690539    -0.06200
N1598       N  0.61830834  0.08324075  0.98304898    -0.60770
N1599       N  0.59526582  0.05909775  0.94264123    -0.05800
N1600       N  0.63323199  0.06547006  0.94181902    -0.58620
N1601       N  0.54157257  0.10874318  0.93882591    -0.05480
N1602       N  0.55090026  0.14867509  0.93984858    -0.61120
C1603       C  0.56765358  0.16397775  0.91479819     0.95650
C1604       C  0.64725551  0.08018961  0.96722075     0.95430
N1605       N  0.97773213  0.48960052  0.51207462    -0.06710
N1606       N  0.97131514  0.47484196  0.53760337    -0.59220
N1607       N  0.96577345  0.06359466  0.97995409    -0.04830
N1608       N  0.95622046  0.09403741  0.98094859    -0.60470
N1609       N  0.93197918  0.02648535  0.98080352    -0.06740
N1610       N  0.89900864  0.03088573  0.98234576    -0.59490
N1611       N  0.51192003  0.02652007  0.51079266    -0.04470
N1612       N  0.52928017  0.03740876  0.53522799    -0.60560
Mn1613     Mn  0.52683472  0.06779629  0.97457514     1.18440
C1614       C  0.50400617  0.00470344  0.55178748     0.97730
C1615       C  0.91424931  0.07311695  0.98263013     0.98400
N1616       N  0.55468822  0.48005143  0.90452854    -0.06760
N1617       N  0.58677431  0.47399333  0.90311742    -0.63070
N1618       N  0.97730607  0.48279349  0.87342662    -0.05560
N1619       N  0.96284975  0.47282252  0.84808749    -0.63740
N1620       N  0.51152847  0.01975506  0.87325674    -0.06270
N1621       N  0.52081040  0.03544805  0.84801941    -0.63330
N1622       N  0.52021431  0.44353365  0.90536138    -0.05160
N1623       N  0.52801661  0.41195297  0.90453607    -0.64020
Mn1624     Mn  0.55380346  0.04018391  0.90820010     1.10660
C1625       C  0.56968560  0.43130525  0.90331156     0.98960
C1626       C  0.99000989  0.00627874  0.83248852     0.99030
N1627       N  0.89107458  0.44726638  0.94188217    -0.06270
N1628       N  0.85169565  0.43680848  0.94265652    -0.61650
N1629       N  0.94508338  0.39899974  0.94638651    -0.05590
N1630       N  0.93606106  0.35910837  0.94599251    -0.58380
N1631       N  0.93650473  0.40911836  0.97091808    -0.06900
N1632       N  0.92136307  0.37618634  0.98753733    -0.61210
N1633       N  0.90124692  0.43851508  0.91742032    -0.05890
N1634       N  0.86901843  0.42175259  0.90129067    -0.58400
Mn1635     Mn  0.93374807  0.46750851  0.97701742     1.20190
Mn1636     Mn  0.96036962  0.44038789  0.91013005     1.10090
Cl1637     Cl  0.99358942  0.00398931  0.94244649    -0.86370
C1638       C  0.83830378  0.42089582  0.91720726     0.95960
C1639       C  0.92221880  0.34554808  0.97191271     0.95760
N1640       N  0.94314859  0.03439744  0.65705683    -0.06520
N1641       N  0.91156806  0.04094370  0.65526809    -0.58640
N1642       N  0.51972993  0.02999059  0.62329317    -0.06200
N1643       N  0.53400226  0.03940374  0.59746510    -0.60770
N1644       N  0.98515327  0.49326895  0.62378926    -0.05800
N1645       N  0.97559614  0.47720442  0.59868539    -0.58620
N1646       N  0.97789476  0.07051701  0.65751292    -0.05480
N1647       N  0.97069434  0.10232978  0.65580899    -0.61120
C1648       C  0.92909774  0.08361026  0.65464647     0.95650
C1649       C  0.50641270  0.00580654  0.58237775     0.95430
N1650       N  0.60562979  0.06401343  0.68950294    -0.06710
N1651       N  0.64533230  0.07563975  0.68959925    -0.59220
N1652       N  0.55215374  0.11314406  0.69829886    -0.04830
N1653       N  0.56031136  0.15283113  0.70000520    -0.60470
N1654       N  0.56058633  0.10160070  0.72175098    -0.06740
N1655       N  0.57493649  0.13321379  0.73957768    -0.59490
N1656       N  0.59630772  0.07415763  0.66585449    -0.04470
N1657       N  0.62938806  0.09267655  0.64950033    -0.60560
Mn1658     Mn  0.53713655  0.07258411  0.66070325     1.18440
C1659       C  0.65965195  0.09315933  0.66445741     0.97730
C1660       C  0.57372315  0.16468127  0.72604162     0.98400
N1661       N  0.93999789  0.41284562  0.66395780    -0.06760
N1662       N  0.91986363  0.37894899  0.64834847    -0.63070
N1663       N  0.90618936  0.44332528  0.71813176    -0.05560
N1664       N  0.87142264  0.42531747  0.73308703    -0.63740
N1665       N  0.89952502  0.45557814  0.69435241    -0.06270
N1666       N  0.86100727  0.44694717  0.69270221    -0.63330
N1667       N  0.94854367  0.40216446  0.68762836    -0.05160
N1668       N  0.93456857  0.36116032  0.68838803    -0.64020
Mn1669     Mn  0.94206351  0.47385265  0.65942960     1.10660
C1670       C  0.91681534  0.34682350  0.66381907     0.98960
C1671       C  0.84391331  0.42841470  0.71687664     0.99030
N1672       N  0.51749911  0.02056593  0.76128356    -0.06270
N1673       N  0.52481754  0.03551494  0.78681484    -0.61650
N1674       N  0.52580977  0.44476348  0.72658982    -0.05590
N1675       N  0.53323017  0.41295910  0.72887917    -0.58380
N1676       N  0.56076068  0.48107727  0.72683651    -0.06900
N1677       N  0.59242918  0.47472525  0.72937367    -0.61210
N1678       N  0.98230346  0.48457414  0.76065823    -0.05890
N1679       N  0.96530321  0.47439409  0.78572922    -0.58400
Mn1680     Mn  0.56164141  0.04207787  0.72525298     1.20190
Mn1681     Mn  0.96542038  0.44323103  0.72380029     1.10090
Cl1682     Cl  0.00174778  0.00786700  0.69224436    -0.86370
C1683       C  0.99182698  0.00672308  0.80184975     0.95960
C1684       C  0.57495886  0.43216666  0.73043988     0.95760
C1685       C  0.63901209  0.22671073  0.73901049    -0.06190
C1686       C  0.59696912  0.20930950  0.73502762    -0.00260
C1687       C  0.57842020  0.23374950  0.74145258    -0.08830
C1688       C  0.60393762  0.27750065  0.74548065    -0.06210
C1689       C  0.64751226  0.29704730  0.74955881    -0.00270
C1690       C  0.66288558  0.26724389  0.75052148    -0.08740
C1691       C  0.70094059  0.27229709  0.76492832     0.61640
H1692       H  0.65244256  0.20650110  0.73558961     0.12330
H1693       H  0.58834795  0.29553633  0.74800674     0.12350
C1694       C  0.53245075  0.21285186  0.74761641     0.61870
F1695       F  0.69363861  0.23376049  0.77510691    -0.23290
F1696       F  0.71026619  0.29777731  0.78736011    -0.20620
F1697       F  0.73468823  0.28684682  0.74718811    -0.20300
F1698       F  0.52304397  0.18729709  0.77052380    -0.20350
F1699       F  0.51080896  0.18819762  0.72577155    -0.20680
F1700       F  0.51955112  0.24198577  0.75297081    -0.23350
C1701       C  0.63571830  0.39133739  0.76831997    -0.06190
C1702       C  0.64535015  0.36849598  0.74787564    -0.00260
C1703       C  0.62919030  0.36722012  0.72073342    -0.08830
C1704       C  0.60569143  0.38745718  0.71636545    -0.06210
C1705       C  0.59818710  0.41014108  0.73693915    -0.00270
C1706       C  0.61373935  0.41253234  0.76328194    -0.08740
C1707       C  0.60811192  0.43870438  0.78600828     0.61640
H1708       H  0.64762157  0.39569373  0.78864194     0.12330
H1709       H  0.59338929  0.38612619  0.69613587     0.12350
C1710       C  0.63307312  0.34492324  0.69494606     0.61870
F1711       F  0.62221523  0.43426518  0.81111243    -0.23290
F1712       F  0.56671296  0.42633752  0.78947323    -0.20620
F1713       F  0.62991924  0.98101722  0.77893949    -0.20300
F1714       F  0.59391574  0.31535252  0.68649802    -0.20350
F1715       F  0.65469078  0.32418309  0.69796204    -0.20680
F1716       F  0.65243144  0.37431914  0.67413718    -0.23350
C1717       C  0.78492069  0.43447177  0.73440047    -0.06190
C1718       C  0.79940166  0.40923035  0.72260285    -0.00260
C1719       C  0.77100875  0.36817289  0.71381626    -0.08830
C1720       C  0.72928019  0.35106126  0.72202145    -0.06210
C1721       C  0.71503461  0.37284585  0.73973214    -0.00270
C1722       C  0.74299506  0.41805772  0.74226426    -0.08740
C1723       C  0.73126581  0.45046475  0.75279588     0.61640
H1724       H  0.80748528  0.46730085  0.73808164     0.12330
H1725       H  0.70863086  0.31938339  0.71545161     0.12350
C1726       C  0.78515221  0.34226006  0.69656202     0.61870
F1727       F  0.76446621  0.49133476  0.75228778    -0.23290
F1728       F  0.71732209  0.44247791  0.77974488    -0.20620
F1729       F  0.70205563  0.45061712  0.73605140    -0.20300
F1730       F  0.81348519  0.33657527  0.71097895    -0.20350
F1731       F  0.80350407  0.36321312  0.67222001    -0.20680
F1732       F  0.75265119  0.30277750  0.68990323    -0.23350
C1733       C  0.60182718  0.21867416  0.87974111    -0.06190
C1734       C  0.59057408  0.20968437  0.90740175    -0.00260
C1735       C  0.60683216  0.24354601  0.92671193    -0.08830
C1736       C  0.63344191  0.28493874  0.91701505    -0.06210
C1737       C  0.64295393  0.29498016  0.88876182    -0.00270
C1738       C  0.63203736  0.25881223  0.87065239    -0.08740
C1739       C  0.65253403  0.25558458  0.84357493     0.61640
H1740       H  0.59026283  0.19255540  0.86516123     0.12330
H1741       H  0.64576427  0.31047763  0.93164021     0.12350
C1742       C  0.59606288  0.23694295  0.95734307     0.61870
F1743       F  0.66018358  0.22211415  0.84513083    -0.23290
F1744       F  0.69004327  0.28977738  0.83749465    -0.20620
F1745       F  0.62617841  0.24734650  0.82196317    -0.20300
F1746       F  0.61017750  0.21174963  0.96825667    -0.20350
F1747       F  0.55369454  0.21810236  0.96127112    -0.20680
F1748       F  0.61377583  0.27468502  0.97189694    -0.23350
C1749       C  0.60478742  0.34910495  0.90421685    -0.06190
C1750       C  0.64291478  0.36930400  0.88897208    -0.00260
C1751       C  0.65656168  0.41223930  0.87988414    -0.08830
C1752       C  0.63090359  0.42980138  0.88511306    -0.06210
C1753       C  0.59391369  0.40912284  0.90014739    -0.00270
C1754       C  0.58131797  0.36871210  0.91098008    -0.08740
C1755       C  0.54353048  0.34613556  0.92997426     0.61640
H1756       H  0.59152532  0.31688573  0.91045792     0.12330
H1757       H  0.63924126  0.46034797  0.87652928     0.12350
C1758       C  0.69554721  0.44087176  0.86270666     0.61870
F1759       F  0.54160444  0.31126659  0.94246540    -0.23290
F1760       F  0.50794693  0.33233980  0.91516657    -0.20620
F1761       F  0.54498518  0.37340068  0.95067407    -0.20300
F1762       F  0.68788767  0.43159888  0.83508838    -0.20350
F1763       F  0.72927864  0.43798741  0.87003884    -0.20680
F1764       F  0.70717520  0.48316162  0.86613951    -0.23350
C1765       C  0.73311890  0.34353387  0.88858444    -0.06190
C1766       C  0.70909132  0.36277243  0.89555777    -0.00260
C1767       C  0.72686290  0.39611621  0.91605951    -0.08830
C1768       C  0.76980914  0.41588394  0.92030984    -0.06210
C1769       C  0.79427012  0.39973849  0.90946643    -0.00270
C1770       C  0.77505102  0.36126524  0.89466300    -0.08740
C1771       C  0.79801748  0.33814761  0.88561161     0.61640
H1772       H  0.71895510  0.31414658  0.87779302     0.12330
H1773       H  0.78443593  0.44373120  0.93334354     0.12350
C1774       C  0.70400981  0.41092214  0.93591486     0.61870
F1775       F  0.77175492  0.29837996  0.87499401    -0.23290
F1776       F  0.81740152  0.33293014  0.90789041    -0.20620
F1777       F  0.82703134  0.36097784  0.86525429    -0.20300
F1778       F  0.66435530  0.37981572  0.94207667    -0.20350
F1779       F  0.70412207  0.44603051  0.92557787    -0.20680
F1780       F  0.72361472  0.42248896  0.96100877    -0.23350
C1781       C  0.70742467  0.36840011  0.83474672    -0.06190
C1782       C  0.66851383  0.34718160  0.84851669    -0.00260
C1783       C  0.63279745  0.32881274  0.83154065    -0.08830
C1784       C  0.63870000  0.32788945  0.80303279    -0.06210
C1785       C  0.67726911  0.34867440  0.78869975    -0.00270
C1786       C  0.71342554  0.36832008  0.80586742    -0.08740
C1787       C  0.75910027  0.38572168  0.79751284     0.61640
H1788       H  0.73467678  0.38460684  0.84684940     0.12330
H1789       H  0.61148355  0.31407926  0.79095967     0.12350
C1790       C  0.58788613  0.31309256  0.84147338     0.61870
F1791       F  0.77931502  0.37646041  0.81746663    -0.23290
F1792       F  0.77874904  0.42919698  0.79524810    -0.20620
F1793       F  0.76516569  0.36825291  0.77393436    -0.20300
F1794       F  0.58317061  0.34739886  0.84827903    -0.20350
F1795       F  0.57608480  0.28599096  0.86348179    -0.20680
F1796       F  0.55945951  0.29090574  0.82125801    -0.23350
C1797       C  0.75401908  0.12114945  0.61913944    -0.06190
C1798       C  0.78851411  0.14507704  0.63667636    -0.00260
C1799       C  0.77632876  0.14419164  0.66562108    -0.08830
C1800       C  0.73533201  0.13442484  0.67231363    -0.06210
C1801       C  0.70306849  0.11091598  0.65448406    -0.00270
C1802       C  0.71261445  0.10028694  0.62855391    -0.08740
C1803       C  0.67987154  0.06348260  0.61224565     0.61640
H1804       H  0.75842262  0.11449663  0.59810160     0.12330
H1805       H  0.72734629  0.13896893  0.69329345     0.12350
C1806       C  0.79815316  0.14188053  0.69122802     0.61870
F1807       F  0.69757328  0.04881181  0.59276354    -0.23290
F1808       F  0.65494085  0.07576362  0.59938052    -0.20620
F1809       F  0.65571534  0.02986884  0.62960360    -0.20300
F1810       F  0.81122858  0.17834888  0.70675916    -0.20350
F1811       F  0.83038142  0.13452779  0.68579491    -0.20680
F1812       F  0.77054708  0.10827126  0.70759579    -0.23350
C1813       C  0.88079763  0.29297783  0.62827382    -0.06190
C1814       C  0.89412756  0.30153766  0.65530355    -0.00260
C1815       C  0.88843627  0.26739677  0.67182408    -0.08830
C1816       C  0.86774462  0.22646159  0.66044683    -0.06210
C1817       C  0.85859860  0.21721374  0.63218672    -0.00270
C1818       C  0.87261605  0.25497382  0.61522327    -0.08740
C1819       C  0.88950575  0.26440336  0.58539354     0.61640
H1820       H  0.88505883  0.31916984  0.61557401     0.12330
H1821       H  0.86454008  0.20175100  0.67319639     0.12350
C1822       C  0.90456068  0.27325494  0.70100966     0.61870
F1823       F  0.92687047  0.30209144  0.58448103    -0.23290
F1824       F  0.86254582  0.26961292  0.56918669    -0.20620
F1825       F  0.89847238  0.23562888  0.57372289    -0.20300
F1826       F  0.88683675  0.29154123  0.71752783    -0.20350
F1827       F  0.94711778  0.29851013  0.70045869    -0.20680
F1828       F  0.89555388  0.23537134  0.71308510    -0.23350
C1829       C  0.89841431  0.16770707  0.64316028    -0.06190
C1830       C  0.85710598  0.14342936  0.63420097    -0.00260
C1831       C  0.83929917  0.09781095  0.63509483    -0.08830
C1832       C  0.86347369  0.08094083  0.64459602    -0.06210
C1833       C  0.90527896  0.10593424  0.65050666    -0.00270
C1834       C  0.92280754  0.15033622  0.65061550    -0.08740
C1835       C  0.96738379  0.18011486  0.65794552     0.61640
H1836       H  0.91425787  0.20153922  0.64124911     0.12330
H1837       H  0.85017678  0.04705822  0.64604451     0.12350
C1838       C  0.79670234  0.06515147  0.62491091     0.61870
F1839       F  0.97607478  0.22156747  0.66120307    -0.23290
F1840       F  0.99352569  0.17930812  0.63746619    -0.20620
F1841       F  0.97509194  0.16758661  0.68255338    -0.20300
F1842       F  0.79101485  0.07507424  0.59874994    -0.20350
F1843       F  0.76631376  0.06205327  0.64317963    -0.20680
F1844       F  0.79171269  0.02490467  0.62289495    -0.23350
C1845       C  0.72077775  0.10795687  0.95398818    -0.06190
C1846       C  0.69049919  0.09554561  0.97504605    -0.00260
C1847       C  0.70213952  0.09668333  0.50245156    -0.08830
C1848       C  0.74413662  0.11360164  0.50782383    -0.06210
C1849       C  0.77586260  0.13625546  0.98784723    -0.00270
C1850       C  0.76333892  0.12696905  0.95951250    -0.08740
C1851       C  0.79241189  0.13422025  0.93482984     0.61640
H1852       H  0.71072038  0.10339665  0.93290010     0.12330
H1853       H  0.75183949  0.11085995  0.52856829     0.12350
C1854       C  0.67100845  0.08127184  0.52631343     0.61870
F1855       F  0.77218058  0.12511602  0.91002178    -0.23290
F1856       F  0.80945063  0.10829177  0.93634413    -0.20620
F1857       F  0.82316763  0.17548355  0.93345259    -0.20300
F1858       F  0.63990085  0.04026352  0.52155317    -0.20350
F1859       F  0.65444150  0.10761826  0.52993006    -0.20680
F1860       F  0.68930024  0.08173301  0.55059614    -0.23350
C1861       C  0.88300174  0.23745164  0.00291625    -0.06190
C1862       C  0.84351579  0.21286511  0.99065966    -0.00260
C1863       C  0.82965752  0.23611161  0.97394374    -0.08830
C1864       C  0.85877697  0.27794318  0.96647395    -0.06210
C1865       C  0.89711434  0.30048756  0.97872479    -0.00270
C1866       C  0.90914375  0.28073507  0.99793105    -0.08740
C1867       C  0.95047945  0.30498006  0.01190249     0.61640
H1868       H  0.89448259  0.22197943  0.01591930     0.12330
H1869       H  0.85019914  0.29487479  0.95228453     0.12350
C1870       C  0.78598600  0.22418052  0.96512927     0.61870
F1871       F  0.95753614  0.27956510  0.02924834    -0.23290
F1872       F  0.95161660  0.33774188  0.52738015    -0.20620
F1873       F  0.98194265  0.32146701  0.99214919    -0.20300
F1874       F  0.77976346  0.25837982  0.46931993    -0.20370
F1875       F  0.75463468  0.19209130  0.97971092    -0.20680
F1876       F  0.78152810  0.21450240  0.93733626    -0.23350
C1877       C  0.82574544  0.09742366  0.99132615    -0.06190
C1878       C  0.84557040  0.14168990  0.98558244    -0.00260
C1879       C  0.88702652  0.15987942  0.97357054    -0.08830
C1880       C  0.90788675  0.13657368  0.97506064    -0.06210
C1881       C  0.88854072  0.09415833  0.98295359    -0.00270
C1882       C  0.84585210  0.07345265  0.98998309    -0.08740
C1883       C  0.82139239  0.02678689  0.99760556     0.61640
H1884       H  0.79464802  0.08196633  0.99969082     0.12330
H1885       H  0.94003868  0.15147518  0.96829405     0.12350
C1886       C  0.91254813  0.20067101  0.95703571     0.61870
F1887       F  0.78091679  0.01411125  0.00543509    -0.23290
F1888       F  0.83952419  0.01887126  0.01950095    -0.20620
F1889       F  0.82011822  0.00239102  0.97510915    -0.20300
F1890       F  0.94644354  0.22860353  0.47205132    -0.20350
F1891       F  0.89196492  0.22076290  0.94889181    -0.20680
F1892       F  0.92705728  0.19129314  0.93284792    -0.23350
C1893       C  0.84664420  0.14930210  0.54389156    -0.06190
C1894       C  0.82278479  0.16472761  0.53134054    -0.00260
C1895       C  0.80537981  0.18349891  0.55021834    -0.08830
C1896       C  0.81035924  0.18165563  0.57883284    -0.06210
C1897       C  0.83388654  0.16574821  0.59088906    -0.00270
C1898       C  0.85634685  0.15326785  0.57188998    -0.08740
C1899       C  0.89698489  0.15360723  0.57764395     0.61640
H1900       H  0.86247329  0.13731479  0.53147991     0.12330
H1901       H  0.79644571  0.19434342  0.59306235     0.12350
C1902       C  0.78244472  0.20711541  0.54241503     0.61870
F1903       F  0.91958879  0.15643479  0.55378634    -0.23290
F1904       F  0.88949930  0.11700556  0.59040017    -0.20620
F1905       F  0.92316083  0.18875245  0.59268509    -0.20300
F1906       F  0.74635663  0.18114403  0.52932098    -0.20350
F1907       F  0.80717052  0.24193620  0.52651330    -0.20680
F1908       F  0.77089901  0.22260882  0.56519965    -0.23350
C1909       C  0.82150431  0.66452450  0.99803179    -0.02890
C1910       C  0.83500386  0.66770019  0.12346278    -0.02890
C1911       C  0.66587531  0.84389174  0.38073043    -0.02890
C1912       C  0.67249950  0.84717941  0.25610805    -0.02890
N1913       N  0.55179873  0.59951438  0.41456755    -0.06520
N1914       N  0.56858400  0.63346179  0.39880921    -0.58640
N1915       N  0.58624802  0.56939152  0.46690534    -0.06200
N1916       N  0.61830878  0.58324067  0.48304890    -0.60770
N1917       N  0.59526618  0.55909777  0.44264114    -0.05800
N1918       N  0.63323231  0.56546998  0.44181890    -0.58620
N1919       N  0.54157304  0.60874330  0.43882591    -0.05480
N1920       N  0.55090078  0.64867523  0.43984861    -0.61120
C1921       C  0.56765405  0.66397789  0.41479821     0.95650
C1922       C  0.64725588  0.58018946  0.46722063     0.95430
N1923       N  0.97773172  0.98960043  0.01207463    -0.06710
N1924       N  0.97131481  0.97484184  0.03760337    -0.59220
N1925       N  0.96577394  0.56359482  0.47995411    -0.04830
N1926       N  0.95622098  0.59403759  0.48094865    -0.60470
N1927       N  0.93197967  0.52648551  0.48080353    -0.06740
N1928       N  0.89900914  0.53088591  0.48234579    -0.59490
N1929       N  0.51191960  0.52651999  0.01079267    -0.04470
N1930       N  0.52927980  0.53740866  0.03522797    -0.60560
Mn1931     Mn  0.52683518  0.56779638  0.47457514     1.18440
C1932       C  0.50400585  0.50470331  0.05178746     0.97730
C1933       C  0.91424982  0.57311713  0.48263021     0.98400
N1934       N  0.55468852  0.98005149  0.40452847    -0.06760
N1935       N  0.58677460  0.97399339  0.40311734    -0.63070
N1936       N  0.97730635  0.98279359  0.37342662    -0.05560
N1937       N  0.96284999  0.97282259  0.34808750    -0.63740
N1938       N  0.51152874  0.51975515  0.37325671    -0.06270
N1939       N  0.52081063  0.53544811  0.34801937    -0.63330
N1940       N  0.52021460  0.94353372  0.40536134    -0.05160
N1941       N  0.52801689  0.91195304  0.40453603    -0.64020
Mn1942     Mn  0.55380378  0.54018398  0.40820005     1.10660
C1943       C  0.56968588  0.93130531  0.40331150     0.98960
C1944       C  0.99001011  0.50627880  0.33248849     0.99030
N1945       N  0.89107495  0.94726656  0.44188218    -0.06270
N1946       N  0.85169602  0.93680870  0.44265652    -0.61650
N1947       N  0.94508364  0.89899979  0.44638649    -0.05590
N1948       N  0.93606124  0.85910840  0.44599247    -0.58380
N1949       N  0.93650502  0.90911842  0.47091807    -0.06900
N1950       N  0.92136330  0.87618638  0.48753730    -0.61210
N1951       N  0.90124728  0.93851526  0.41742033    -0.05890
N1952       N  0.86901880  0.92175283  0.40129067    -0.58400
Mn1953     Mn  0.93374846  0.96750864  0.47701742     1.20190
Mn1954     Mn  0.96036993  0.94038799  0.41013004     1.10090
Cl1955     Cl  0.99358980  0.50398942  0.44244646    -0.86370
C1956       C  0.83830416  0.92089608  0.41720726     0.95960
C1957       C  0.92221895  0.84554809  0.47191266     0.95760
N1958       N  0.94314860  0.53439739  0.15705684    -0.06520
N1959       N  0.91156809  0.54094369  0.15526816    -0.58640
N1960       N  0.51972983  0.52999041  0.12329314    -0.06200
N1961       N  0.53400209  0.53940356  0.09746506    -0.60770
N1962       N  0.98515317  0.99326879  0.12378925    -0.05800
N1963       N  0.97559597  0.97720427  0.09868538    -0.58620
N1964       N  0.97789480  0.57051695  0.15751292    -0.05480
N1965       N  0.97069440  0.60232974  0.15580905    -0.61120
C1966       C  0.92909779  0.58361025  0.15464657     0.95650
C1967       C  0.50641248  0.50580637  0.08237772     0.95430
N1968       N  0.60562975  0.56401317  0.18950286    -0.06710
N1969       N  0.64533226  0.57563945  0.18959915    -0.59220
N1970       N  0.55215384  0.61314394  0.19829881    -0.04830
N1971       N  0.56031148  0.65283103  0.20000515    -0.60470
N1972       N  0.56058644  0.60160058  0.22175092    -0.06740
N1973       N  0.57493663  0.63321368  0.23957761    -0.59490
N1974       N  0.59630768  0.57415740  0.16585441    -0.04470
N1975       N  0.62938801  0.59267629  0.14950025    -0.60560
Mn1976     Mn  0.53713654  0.57258396  0.16070321     1.18440
C1977       C  0.65965190  0.59315902  0.16445731     0.97730
C1978       C  0.57372331  0.66468117  0.22604156     0.98400
N1979       N  0.93999774  0.91284548  0.16395780    -0.06760
N1980       N  0.91986349  0.87894884  0.14834846    -0.63070
N1981       N  0.90618932  0.94332527  0.21813178    -0.05560
N1982       N  0.87142259  0.92531748  0.23308703    -0.63740
N1983       N  0.89952501  0.95557814  0.19435242    -0.06270
N1984       N  0.86100727  0.94694722  0.19270222    -0.63330
N1985       N  0.94854352  0.90216431  0.18762836    -0.05160
N1986       N  0.93456843  0.86116018  0.18838804    -0.64020
Mn1987     Mn  0.94206346  0.97385256  0.15942961     1.10660
C1988       C  0.91681521  0.84682335  0.16381907     0.98960
C1989       C  0.84391330  0.92841475  0.21687663     0.99030
N1990       N  0.51749916  0.52056585  0.26128352    -0.06270
N1991       N  0.52481765  0.53551490  0.28681479    -0.61650
N1992       N  0.52580966  0.94476327  0.22658979    -0.05590
N1993       N  0.53323000  0.91295886  0.22887916    -0.58380
N1994       N  0.56076059  0.98107703  0.22683644    -0.06900
N1995       N  0.59242906  0.97472497  0.22937361    -0.61210
N1996       N  0.98230350  0.98457409  0.26065822    -0.05890
N1997       N  0.96530330  0.97439410  0.28572923    -0.58400
Mn1998     Mn  0.56164141  0.54207770  0.22525293     1.20190
Mn1999     Mn  0.96542031  0.94323093  0.22380030     1.10090
Cl2000     Cl  0.00174774  0.50786687  0.19224432    -0.86370
C2001       C  0.99182713  0.50672309  0.30184972     0.95960
C2002       C  0.57495870  0.93216638  0.23043985     0.95760
C2003       C  0.63901222  0.72671067  0.23901043    -0.06190
C2004       C  0.59696924  0.70930939  0.23502757    -0.00260
C2005       C  0.57842027  0.73374933  0.24145256    -0.08830
C2006       C  0.60393765  0.77750048  0.24548066    -0.06210
C2007       C  0.64751230  0.79704719  0.24955879    -0.00270
C2008       C  0.66288568  0.76724384  0.25052143    -0.08740
C2009       C  0.70094073  0.77229709  0.26492826     0.61640
H2010       H  0.65244272  0.70650107  0.23558953     0.12330
H2011       H  0.58834794  0.79553612  0.24800679     0.12350
C2012       C  0.53245081  0.71285163  0.24761639     0.61870
F2013       F  0.69363887  0.73376050  0.27510676    -0.23290
F2014       F  0.71026621  0.79777721  0.28736009    -0.20620
F2015       F  0.73468840  0.78684701  0.24718806    -0.20300
F2016       F  0.52304409  0.68729688  0.27052379    -0.20350
F2017       F  0.51080904  0.68819734  0.22577155    -0.20680
F2018       F  0.51955112  0.74198550  0.25297079    -0.23350
C2019       C  0.63571820  0.89133719  0.26831995    -0.06190
C2020       C  0.64535008  0.86849580  0.24787561    -0.00260
C2021       C  0.62919018  0.86721989  0.22073340    -0.08830
C2022       C  0.60569126  0.88745690  0.21636543    -0.06210
C2023       C  0.59818691  0.91014078  0.23693914    -0.00270
C2024       C  0.61373919  0.91253208  0.26328193    -0.08740
C2025       C  0.60811175  0.93870412  0.28600826     0.61640
H2026       H  0.64762149  0.89569356  0.28864191     0.12330
H2027       H  0.59338911  0.88612589  0.19613586     0.12350
C2028       C  0.63307301  0.84492301  0.19494604     0.61870
F2029       F  0.62221510  0.93426495  0.31111240    -0.23290
F2030       F  0.56671279  0.92633723  0.28947322    -0.20620
F2031       F  0.62991904  0.48101696  0.27893949    -0.20300
F2032       F  0.59391563  0.81535228  0.18649801    -0.20350
F2033       F  0.65469069  0.82418289  0.19796201    -0.20680
F2034       F  0.65243130  0.87431892  0.17413716    -0.23350
C2035       C  0.78492061  0.93447177  0.23440041    -0.06190
C2036       C  0.79940163  0.90923038  0.22260280    -0.00260
C2037       C  0.77100875  0.86817292  0.21381619    -0.08830
C2038       C  0.72928018  0.85106126  0.22202137    -0.06210
C2039       C  0.71503458  0.87284579  0.23973207    -0.00270
C2040       C  0.74299498  0.91805767  0.24226419    -0.08740
C2041       C  0.73126567  0.95046467  0.25279581     0.61640
H2042       H  0.80748518  0.96730086  0.23808158     0.12330
H2043       H  0.70863088  0.81938337  0.21545152     0.12350
C2044       C  0.78515225  0.84226013  0.19656194     0.61870
F2045       F  0.76446603  0.99133470  0.25228769    -0.23290
F2046       F  0.71732200  0.94247782  0.27974482    -0.20620
F2047       F  0.70205544  0.95061697  0.23605135    -0.20300
F2048       F  0.81348524  0.83657536  0.21097888    -0.20350
F2049       F  0.80350413  0.86321322  0.17221994    -0.20680
F2050       F  0.75265127  0.80277757  0.18990313    -0.23350
C2051       C  0.60182766  0.71867430  0.37974113    -0.06190
C2052       C  0.59057455  0.70968452  0.40740176    -0.00260
C2053       C  0.60683260  0.74354616  0.42671194    -0.08830
C2054       C  0.63344232  0.78493890  0.41701505    -0.06210
C2055       C  0.64295434  0.79498031  0.38876182    -0.00270
C2056       C  0.63203781  0.75881238  0.37065241    -0.08740
C2057       C  0.65253451  0.75558474  0.34357496     0.61640
H2058       H  0.59026334  0.69255553  0.36516126     0.12330
H2059       H  0.64576467  0.81047780  0.43164020     0.12350
C2060       C  0.59606328  0.73694312  0.45734308     0.61870
F2061       F  0.66018412  0.72211435  0.34513088    -0.23290
F2062       F  0.69004372  0.78977756  0.33749466    -0.20620
F2063       F  0.62617888  0.74734659  0.32196319    -0.20300
F2064       F  0.61017795  0.71174985  0.46825671    -0.20350
F2065       F  0.55369494  0.71810249  0.46127110    -0.20680
F2066       F  0.61377619  0.77468521  0.47189693    -0.23350
C2067       C  0.60478778  0.84910507  0.40421686    -0.06190
C2068       C  0.64291510  0.86930412  0.38897205    -0.00260
C2069       C  0.65656195  0.91223938  0.37988407    -0.08830
C2070       C  0.63090383  0.92980143  0.38511296    -0.06210
C2071       C  0.59391397  0.90912290  0.40014732    -0.00270
C2072       C  0.58131830  0.86871220  0.41098006    -0.08740
C2073       C  0.54353082  0.84613568  0.42997425     0.61640
H2074       H  0.59152572  0.81688588  0.41045797     0.12330
H2075       H  0.63924146  0.96034798  0.37652915     0.12350
C2076       C  0.69554746  0.94087185  0.36270657     0.61870
F2077       F  0.54160480  0.81126672  0.44246541    -0.23290
F2078       F  0.50794726  0.83233989  0.41516657    -0.20620
F2079       F  0.54498553  0.87340081  0.45067405    -0.20300
F2080       F  0.68788789  0.93159897  0.33508829    -0.20350
F2081       F  0.72927891  0.93798751  0.37003871    -0.20680
F2082       F  0.70717544  0.98316171  0.36613944    -0.23350
C2083       C  0.73311931  0.84353413  0.38858440    -0.06190
C2084       C  0.70909170  0.86277266  0.39555772    -0.00260
C2085       C  0.72686327  0.89611645  0.41605946    -0.08830
C2086       C  0.76980950  0.91588419  0.42030981    -0.06210
C2087       C  0.79427051  0.89973876  0.40946641    -0.00270
C2088       C  0.77505142  0.86126552  0.39466297    -0.08740
C2089       C  0.79801791  0.83814791  0.38561157     0.61640
H2090       H  0.71895553  0.81414683  0.37779300     0.12330
H2091       H  0.78443629  0.94373145  0.43334352     0.12350
C2092       C  0.70401016  0.91092238  0.43591480     0.61870
F2093       F  0.77175537  0.79838026  0.37499396    -0.23290
F2094       F  0.81740195  0.83293044  0.40789037    -0.20620
F2095       F  0.82703177  0.86097816  0.36525425    -0.20300
F2096       F  0.66435569  0.87981591  0.44207665    -0.20350
F2097       F  0.70412230  0.94603067  0.42557775    -0.20680
F2098       F  0.72361511  0.92248933  0.46100869    -0.23350
C2099       C  0.70742488  0.86840018  0.33474664    -0.06190
C2100       C  0.66851408  0.84718167  0.34851666    -0.00260
C2101       C  0.63279765  0.82881272  0.33154066    -0.08830
C2102       C  0.63870012  0.82788938  0.30303279    -0.06210
C2103       C  0.67726919  0.84867435  0.28869971    -0.00270
C2104       C  0.71342567  0.86832009  0.30586734    -0.08740
C2105       C  0.75910037  0.88572166  0.29751271     0.61640
H2106       H  0.73467702  0.88460693  0.34684929     0.12330
H2107       H  0.61148364  0.81407912  0.29095970     0.12350
C2108       C  0.58788634  0.81309251  0.34147344     0.61870
F2109       F  0.77931518  0.87646042  0.31746648    -0.23290
F2110       F  0.77874914  0.92919695  0.29524793    -0.20620
F2111       F  0.76516570  0.86825282  0.27393424    -0.20300
F2112       F  0.58317080  0.84739879  0.34827907    -0.20350
F2113       F  0.57608511  0.78599097  0.36348188    -0.20680
F2114       F  0.55945968  0.79090561  0.32125811    -0.23350
C2115       C  0.75401913  0.62114930  0.11913939    -0.06190
C2116       C  0.78851412  0.64507689  0.13667634    -0.00260
C2117       C  0.77632872  0.64419150  0.16562105    -0.08830
C2118       C  0.73533194  0.63442463  0.17231356    -0.06210
C2119       C  0.70306845  0.61091574  0.15448397    -0.00270
C2120       C  0.71261448  0.60028675  0.12855382    -0.08740
C2121       C  0.67987159  0.56348241  0.11224555     0.61640
H2122       H  0.75842273  0.61449653  0.09810155     0.12330
H2123       H  0.72734618  0.63896870  0.19329338     0.12350
C2124       C  0.79815313  0.64188049  0.19122802     0.61870
F2125       F  0.69757332  0.54881197  0.09276318    -0.23290
F2126       F  0.65494055  0.57576326  0.09938070    -0.20620
F2127       F  0.65571573  0.52986849  0.12960346    -0.20300
F2128       F  0.81122854  0.67834891  0.20675909    -0.20350
F2129       F  0.83038139  0.63452774  0.18579496    -0.20680
F2130       F  0.77054707  0.60827129  0.20759584    -0.23350
C2131       C  0.88079771  0.79297765  0.12827377    -0.06190
C2132       C  0.89412751  0.80153751  0.15530354    -0.00260
C2133       C  0.88843626  0.76739665  0.17182409    -0.08830
C2134       C  0.86774466  0.72646140  0.16044688    -0.06210
C2135       C  0.85859864  0.71721358  0.13218676    -0.00270
C2136       C  0.87261623  0.75497362  0.11522329    -0.08740
C2137       C  0.88950646  0.76440310  0.08539369     0.61640
H2138       H  0.88505905  0.81916963  0.11557391     0.12330
H2139       H  0.86454028  0.70175118  0.17319628     0.12350
C2140       C  0.90456068  0.77325486  0.20100967     0.61870
F2141       F  0.92687125  0.80209111  0.08448137    -0.23290
F2142       F  0.86254689  0.76961275  0.06918649    -0.20620
F2143       F  0.89847313  0.73562847  0.07372332    -0.20300
F2144       F  0.88683672  0.79154110  0.21752784    -0.20350
F2145       F  0.94711778  0.79851011  0.20045868    -0.20680
F2146       F  0.89555395  0.73537128  0.21308512    -0.23350
C2147       C  0.89841442  0.66770703  0.14316019    -0.06190
C2148       C  0.85710602  0.64342925  0.13420102    -0.00260
C2149       C  0.83929914  0.59781086  0.13509509    -0.08830
C2150       C  0.86347368  0.58094080  0.14459635    -0.06210
C2151       C  0.90527903  0.60593424  0.15050681    -0.00270
C2152       C  0.92280766  0.65033622  0.15061546    -0.08740
C2153       C  0.96738398  0.68011491  0.15794530     0.61640
H2154       H  0.91425800  0.70153916  0.14124884     0.12330
H2155       H  0.85017672  0.54705820  0.14604502     0.12350
C2156       C  0.79670232  0.56515132  0.12491121     0.61870
F2157       F  0.97607503  0.72156757  0.16120267    -0.23290
F2158       F  0.99352572  0.67930793  0.13746594    -0.20620
F2159       F  0.97509231  0.66758693  0.18255320    -0.20300
F2160       F  0.79101482  0.57507397  0.09875020    -0.20350
F2161       F  0.76631373  0.56205318  0.14317989    -0.20680
F2162       F  0.79171268  0.52490452  0.12289534    -0.23350
C2163       C  0.72077812  0.60795673  0.45398805    -0.06190
C2164       C  0.69049952  0.59554531  0.47504591    -0.00260
C2165       C  0.70213921  0.59668382  0.00245171    -0.08830
C2166       C  0.74413630  0.61360197  0.00782395    -0.06210
C2167       C  0.77586289  0.63625527  0.48784714    -0.00270
C2168       C  0.76333928  0.62696890  0.45951240    -0.08740
C2169       C  0.79241231  0.63422018  0.43482978     0.61640
H2170       H  0.71072079  0.60339668  0.43289996     0.12330
H2171       H  0.75183918  0.61086032  0.02856841     0.12350
C2172       C  0.67100823  0.58127280  0.02631363     0.61870
F2173       F  0.77218100  0.62511566  0.41002171    -0.23290
F2174       F  0.80945133  0.60829196  0.43634417    -0.20620
F2175       F  0.82316784  0.67548357  0.43345245    -0.20300
F2176       F  0.63990063  0.54026436  0.02155369    -0.20350
F2177       F  0.65444127  0.60761925  0.02992993    -0.20680
F2178       F  0.68930013  0.58173452  0.05059642    -0.23350
C2179       C  0.88300192  0.73745164  0.50291622    -0.06190
C2180       C  0.84351599  0.71286507  0.49065963    -0.00260
C2181       C  0.82965771  0.73611155  0.47394368    -0.08830
C2182       C  0.85877713  0.77794314  0.46647390    -0.06210
C2183       C  0.89711449  0.80048755  0.47872475    -0.00270
C2184       C  0.90914392  0.78073507  0.49793101    -0.08740
C2185       C  0.95047963  0.80498007  0.51190243     0.61640
H2186       H  0.89448279  0.72197944  0.51591926     0.12330
H2187       H  0.85019928  0.79487474  0.45228448     0.12350
C2188       C  0.78598621  0.72418042  0.46512917     0.61870
F2189       F  0.95753632  0.77956514  0.52924831    -0.23290
F2190       F  0.95161637  0.83774178  0.02738022    -0.20620
F2191       F  0.98194282  0.82146697  0.49214912    -0.20300
F2192       F  0.77976331  0.75837997  0.96931991    -0.20370
F2193       F  0.75463487  0.69209100  0.47971068    -0.20680
F2194       F  0.78152846  0.71450256  0.43733612    -0.23350
C2195       C  0.82574593  0.59742374  0.49132640    -0.06190
C2196       C  0.84557076  0.64168991  0.48558253    -0.00260
C2197       C  0.88702682  0.65987944  0.47357053    -0.08830
C2198       C  0.90788712  0.63657375  0.47506060    -0.06210
C2199       C  0.88854123  0.59415848  0.48295372    -0.00270
C2200       C  0.84585269  0.57345282  0.48998345    -0.08740
C2201       C  0.82139319  0.52678720  0.49760633     0.61640
H2202       H  0.79464856  0.58196641  0.49969114     0.12330
H2203       H  0.94003900  0.65147522  0.46829388     0.12350
C2204       C  0.91254834  0.70067100  0.45703565     0.61870
F2205       F  0.78091775  0.51411166  0.50543625    -0.23290
F2206       F  0.83952554  0.51887205  0.51950161    -0.20620
F2207       F  0.82011852  0.50239089  0.47511005    -0.20300
F2208       F  0.94644325  0.72860345  0.97205139    -0.20350
F2209       F  0.89196507  0.72076284  0.44889179    -0.20680
F2210       F  0.92705744  0.69129312  0.43284784    -0.23350
C2211       C  0.84664387  0.64930183  0.04389150    -0.06190
C2212       C  0.82278462  0.66472759  0.03134056    -0.00260
C2213       C  0.80537990  0.68349906  0.05021842    -0.08830
C2214       C  0.81035940  0.68165571  0.07883290    -0.06210
C2215       C  0.83388655  0.66574806  0.09088906    -0.00270
C2216       C  0.85634658  0.65326741  0.07188991    -0.08740
C2217       C  0.89698423  0.65360592  0.07764383     0.61640
H2218       H  0.86247269  0.63731430  0.03147979     0.12330
H2219       H  0.79644598  0.69434357  0.09306245     0.12350
C2220       C  0.78244500  0.70711580  0.04241520     0.61870
F2221       F  0.91958785  0.65643289  0.05378619    -0.23290
F2222       F  0.88949801  0.61700410  0.09040011    -0.20620
F2223       F  0.92316071  0.68875101  0.09268486    -0.20300
F2224       F  0.74635681  0.68114458  0.02932120    -0.20350
F2225       F  0.80717087  0.74193656  0.02651346    -0.20680
F2226       F  0.77089950  0.72260932  0.06519987    -0.23350
C2227       C  0.82150458  0.66452449  0.49803177    -0.02890
C2228       C  0.83500385  0.66770036  0.62346277    -0.02890
C2229       C  0.66587496  0.84389159  0.88073045    -0.02890
C2230       C  0.67249949  0.84717951  0.75610809    -0.02890
N2231       N  0.55179834  0.59951427  0.91456756    -0.06520
N2232       N  0.56858360  0.63346166  0.89880922    -0.58640
N2233       N  0.58624760  0.56939149  0.96690539    -0.06200
N2234       N  0.61830835  0.58324072  0.98304897    -0.60770
N2235       N  0.59526581  0.55909773  0.94264122    -0.05800
N2236       N  0.63323197  0.56547003  0.94181901    -0.58620
N2237       N  0.54157258  0.60874318  0.93882591    -0.05480
N2238       N  0.55090027  0.64867509  0.93984859    -0.61120
C2239       C  0.56765358  0.66397775  0.91479819     0.95650
C2240       C  0.64725550  0.58018956  0.96722073     0.95430
N2241       N  0.97773214  0.98960051  0.51207462    -0.06710
N2242       N  0.97131515  0.97484196  0.53760337    -0.59220
N2243       N  0.96577346  0.56359467  0.97995409    -0.04830
N2244       N  0.95622047  0.59403742  0.98094859    -0.60470
N2245       N  0.93197920  0.52648535  0.98080351    -0.06740
N2246       N  0.89900865  0.53088573  0.98234575    -0.59490
N2247       N  0.51192002  0.52652006  0.51079267    -0.04470
N2248       N  0.52928016  0.53740875  0.53522799    -0.60560
Mn2249     Mn  0.52683473  0.56779629  0.97457514     1.18440
C2250       C  0.50400616  0.50470344  0.55178749     0.97730
C2251       C  0.91424932  0.57311695  0.98263012     0.98400
N2252       N  0.55468822  0.98005143  0.90452854    -0.06760
N2253       N  0.58677432  0.97399333  0.90311743    -0.63070
N2254       N  0.97730606  0.98279349  0.87342664    -0.05560
N2255       N  0.96284974  0.97282251  0.84808750    -0.63740
N2256       N  0.51152846  0.51975506  0.87325675    -0.06270
N2257       N  0.52081039  0.53544806  0.84801941    -0.63330
N2258       N  0.52021432  0.94353365  0.90536139    -0.05160
N2259       N  0.52801661  0.91195297  0.90453607    -0.64020
Mn2260     Mn  0.55380346  0.54018390  0.90820010     1.10660
C2261       C  0.56968560  0.93130525  0.90331157     0.98960
C2262       C  0.99000990  0.50627874  0.83248851     0.99030
N2263       N  0.89107457  0.94726638  0.94188218    -0.06270
N2264       N  0.85169563  0.93680847  0.94265652    -0.61650
N2265       N  0.94508336  0.89899973  0.94638652    -0.05590
N2266       N  0.93606104  0.85910836  0.94599251    -0.58380
N2267       N  0.93650471  0.90911834  0.97091809    -0.06900
N2268       N  0.92136304  0.87618632  0.98753734    -0.61210
N2269       N  0.90124692  0.93851508  0.91742033    -0.05890
N2270       N  0.86901842  0.92175259  0.90129068    -0.58400
Mn2271     Mn  0.93374805  0.96750851  0.97701743     1.20190
Mn2272     Mn  0.96036961  0.94038789  0.91013006     1.10090
Cl2273     Cl  0.99358943  0.50398932  0.94244648    -0.86370
C2274       C  0.83830377  0.92089582  0.91720726     0.95960
C2275       C  0.92221876  0.84554806  0.97191271     0.95760
N2276       N  0.94314860  0.53439745  0.65705683    -0.06520
N2277       N  0.91156808  0.54094372  0.65526809    -0.58640
N2278       N  0.51972995  0.52999059  0.62329318    -0.06200
N2279       N  0.53400227  0.53940374  0.59746511    -0.60770
N2280       N  0.98515327  0.99326895  0.62378927    -0.05800
N2281       N  0.97559615  0.97720442  0.59868539    -0.58620
N2282       N  0.97789479  0.57051703  0.65751292    -0.05480
N2283       N  0.97069436  0.60232979  0.65580900    -0.61120
C2284       C  0.92909776  0.58361028  0.65464648     0.95650
C2285       C  0.50641270  0.50580653  0.58237775     0.95430
N2286       N  0.60562980  0.56401344  0.68950295    -0.06710
N2287       N  0.64533232  0.57563976  0.68959927    -0.59220
N2288       N  0.55215375  0.61314405  0.69829887    -0.04830
N2289       N  0.56031135  0.65283113  0.70000521    -0.60470
N2290       N  0.56058634  0.60160070  0.72175099    -0.06740
N2291       N  0.57493648  0.63321380  0.73957769    -0.59490
N2292       N  0.59630773  0.57415764  0.66585450    -0.04470
N2293       N  0.62938808  0.59267655  0.64950035    -0.60560
Mn2294     Mn  0.53713656  0.57258411  0.66070326     1.18440
C2295       C  0.65965197  0.59315934  0.66445743     0.97730
C2296       C  0.57372314  0.66468127  0.72604163     0.98400
N2297       N  0.93999789  0.91284563  0.66395781    -0.06760
N2298       N  0.91986364  0.87894900  0.64834847    -0.63070
N2299       N  0.90618935  0.94332528  0.71813176    -0.05560
N2300       N  0.87142262  0.92531747  0.73308703    -0.63740
N2301       N  0.89952500  0.95557813  0.69435241    -0.06270
N2302       N  0.86100725  0.94694717  0.69270221    -0.63330
N2303       N  0.94854367  0.90216446  0.68762836    -0.05160
N2304       N  0.93456857  0.86116033  0.68838804    -0.64020
Mn2305     Mn  0.94206350  0.97385264  0.65942960     1.10660
C2306       C  0.91681535  0.84682350  0.66381908     0.98960
C2307       C  0.84391330  0.92841469  0.71687664     0.99030
N2308       N  0.51749911  0.52056593  0.76128357    -0.06270
N2309       N  0.52481754  0.53551494  0.78681485    -0.61650
N2310       N  0.52580975  0.94476347  0.72658981    -0.05590
N2311       N  0.53323014  0.91295909  0.72887915    -0.58380
N2312       N  0.56076065  0.98107725  0.72683650    -0.06900
N2313       N  0.59242915  0.97472524  0.72937366    -0.61210
N2314       N  0.98230344  0.98457414  0.76065824    -0.05890
N2315       N  0.96530320  0.97439409  0.78572923    -0.58400
Mn2316     Mn  0.56164142  0.54207788  0.72525300     1.20190
Mn2317     Mn  0.96542036  0.94323103  0.72380030     1.10090
Cl2318     Cl  0.00174780  0.50786700  0.69224435    -0.86370
C2319       C  0.99182699  0.50672308  0.80184974     0.95960
C2320       C  0.57495884  0.93216664  0.73043986     0.95760
C2321       C  0.63901208  0.72671073  0.73901049    -0.06190
C2322       C  0.59696911  0.70930950  0.73502762    -0.00260
C2323       C  0.57842018  0.73374949  0.74145258    -0.08830
C2324       C  0.60393761  0.77750064  0.74548065    -0.06210
C2325       C  0.64751224  0.79704729  0.74955881    -0.00270
C2326       C  0.66288556  0.76724389  0.75052148    -0.08740
C2327       C  0.70094057  0.77229708  0.76492832     0.61640
H2328       H  0.65244255  0.70650110  0.73558961     0.12330
H2329       H  0.58834794  0.79553633  0.74800674     0.12350
C2330       C  0.53245074  0.71285185  0.74761642     0.61870
F2331       F  0.69363858  0.73376049  0.77510692    -0.23290
F2332       F  0.71026619  0.79777733  0.78736010    -0.20620
F2333       F  0.73468820  0.78684679  0.74718810    -0.20300
F2334       F  0.52304398  0.68729712  0.77052384    -0.20350
F2335       F  0.51080894  0.68819757  0.72577159    -0.20680
F2336       F  0.51955110  0.74198577  0.75297081    -0.23350
C2337       C  0.63571828  0.89133739  0.76831996    -0.06190
C2338       C  0.64535014  0.86849597  0.74787563    -0.00260
C2339       C  0.62919028  0.86722011  0.72073341    -0.08830
C2340       C  0.60569141  0.88745717  0.71636544    -0.06210
C2341       C  0.59818707  0.91014106  0.73693914    -0.00270
C2342       C  0.61373932  0.91253233  0.76328193    -0.08740
C2343       C  0.60811189  0.93870438  0.78600827     0.61640
H2344       H  0.64762155  0.89569373  0.78864193     0.12330
H2345       H  0.59338926  0.88612617  0.69613586     0.12350
C2346       C  0.63307311  0.84492323  0.69494605     0.61870
F2347       F  0.62221521  0.93426518  0.81111241    -0.23290
F2348       F  0.56671293  0.92633751  0.78947322    -0.20620
F2349       F  0.62991927  0.48101723  0.77893951    -0.20300
F2350       F  0.59391573  0.81535251  0.68649801    -0.20350
F2351       F  0.65469077  0.82418308  0.69796203    -0.20680
F2352       F  0.65243142  0.87431913  0.67413718    -0.23350
C2353       C  0.78492067  0.93447177  0.73440046    -0.06190
C2354       C  0.79940165  0.90923034  0.72260284    -0.00260
C2355       C  0.77100874  0.86817288  0.71381626    -0.08830
C2356       C  0.72928017  0.85106126  0.72202145    -0.06210
C2357       C  0.71503460  0.87284584  0.73973213    -0.00270
C2358       C  0.74299504  0.91805771  0.74226425    -0.08740
C2359       C  0.73126579  0.95046475  0.75279587     0.61640
H2360       H  0.80748527  0.96730085  0.73808163     0.12330
H2361       H  0.70863085  0.81938338  0.71545161     0.12350
C2362       C  0.78515219  0.84226005  0.69656202     0.61870
F2363       F  0.76446619  0.99133476  0.75228777    -0.23290
F2364       F  0.71732207  0.94247791  0.77974487    -0.20620
F2365       F  0.70205561  0.95061712  0.73605139    -0.20300
F2366       F  0.81348517  0.83657526  0.71097895    -0.20350
F2367       F  0.80350406  0.86321311  0.67222001    -0.20680
F2368       F  0.75265118  0.80277749  0.68990323    -0.23350
C2369       C  0.60182718  0.71867416  0.87974111    -0.06190
C2370       C  0.59057408  0.70968437  0.90740175    -0.00260
C2371       C  0.60683216  0.74354601  0.92671193    -0.08830
C2372       C  0.63344190  0.78493874  0.91701504    -0.06210
C2373       C  0.64295393  0.79498015  0.88876182    -0.00270
C2374       C  0.63203736  0.75881223  0.87065239    -0.08740
C2375       C  0.65253403  0.75558458  0.84357493     0.61640
H2376       H  0.59026284  0.69255539  0.86516124     0.12330
H2377       H  0.64576427  0.81047763  0.93164020     0.12350
C2378       C  0.59606287  0.73694296  0.95734307     0.61870
F2379       F  0.66018358  0.72211415  0.84513082    -0.23290
F2380       F  0.69004327  0.78977737  0.83749464    -0.20620
F2381       F  0.62617840  0.74734650  0.82196317    -0.20300
F2382       F  0.61017750  0.71174964  0.96825668    -0.20350
F2383       F  0.55369454  0.71810236  0.96127111    -0.20680
F2384       F  0.61377582  0.77468503  0.97189693    -0.23350
C2385       C  0.60478742  0.84910495  0.90421685    -0.06190
C2386       C  0.64291477  0.86930400  0.88897207    -0.00260
C2387       C  0.65656167  0.91223930  0.87988414    -0.08830
C2388       C  0.63090358  0.92980138  0.88511306    -0.06210
C2389       C  0.59391369  0.90912284  0.90014739    -0.00270
C2390       C  0.58131797  0.86871210  0.91098007    -0.08740
C2391       C  0.54353048  0.84613556  0.92997426     0.61640
H2392       H  0.59152531  0.81688573  0.91045792     0.12330
H2393       H  0.63924125  0.96034796  0.87652928     0.12350
C2394       C  0.69554721  0.94087176  0.86270665     0.61870
F2395       F  0.54160444  0.81126659  0.94246539    -0.23290
F2396       F  0.50794693  0.83233981  0.91516657    -0.20620
F2397       F  0.54498519  0.87340068  0.95067407    -0.20300
F2398       F  0.68788766  0.93159888  0.83508837    -0.20350
F2399       F  0.72927863  0.93798741  0.87003883    -0.20680
F2400       F  0.70717519  0.98316162  0.86613951    -0.23350
C2401       C  0.73311890  0.84353387  0.88858444    -0.06190
C2402       C  0.70909132  0.86277243  0.89555777    -0.00260
C2403       C  0.72686289  0.89611621  0.91605950    -0.08830
C2404       C  0.76980913  0.91588394  0.92030984    -0.06210
C2405       C  0.79427011  0.89973849  0.90946643    -0.00270
C2406       C  0.77505101  0.86126524  0.89466300    -0.08740
C2407       C  0.79801747  0.83814761  0.88561161     0.61640
H2408       H  0.71895510  0.81414659  0.87779301     0.12330
H2409       H  0.78443593  0.94373120  0.93334354     0.12350
C2410       C  0.70400981  0.91092214  0.93591486     0.61870
F2411       F  0.77175492  0.79837996  0.87499401    -0.23290
F2412       F  0.81740151  0.83293014  0.90789041    -0.20620
F2413       F  0.82703134  0.86097785  0.86525429    -0.20300
F2414       F  0.66435530  0.87981572  0.94207667    -0.20350
F2415       F  0.70412206  0.94603051  0.92557786    -0.20680
F2416       F  0.72361471  0.92248897  0.96100877    -0.23350
C2417       C  0.70742466  0.86840011  0.83474671    -0.06190
C2418       C  0.66851382  0.84718159  0.84851668    -0.00260
C2419       C  0.63279744  0.82881274  0.83154064    -0.08830
C2420       C  0.63869999  0.82788945  0.80303279    -0.06210
C2421       C  0.67726910  0.84867440  0.78869975    -0.00270
C2422       C  0.71342553  0.86832009  0.80586742    -0.08740
C2423       C  0.75910026  0.88572170  0.79751283     0.61640
H2424       H  0.73467677  0.88460683  0.84684940     0.12330
H2425       H  0.61148353  0.81407927  0.79095967     0.12350
C2426       C  0.58788612  0.81309255  0.84147338     0.61870
F2427       F  0.77931502  0.87646043  0.81746662    -0.23290
F2428       F  0.77874902  0.92919699  0.79524809    -0.20620
F2429       F  0.76516568  0.86825292  0.77393436    -0.20300
F2430       F  0.58317060  0.84739885  0.84827903    -0.20350
F2431       F  0.57608480  0.78599095  0.86348179    -0.20680
F2432       F  0.55945950  0.79090573  0.82125801    -0.23350
C2433       C  0.75401910  0.62114945  0.61913945    -0.06190
C2434       C  0.78851413  0.64507704  0.63667637    -0.00260
C2435       C  0.77632878  0.64419165  0.66562109    -0.08830
C2436       C  0.73533203  0.63442485  0.67231364    -0.06210
C2437       C  0.70306850  0.61091599  0.65448407    -0.00270
C2438       C  0.71261447  0.60028694  0.62855392    -0.08740
C2439       C  0.67987156  0.56348260  0.61224567     0.61640
H2440       H  0.75842263  0.61449662  0.59810161     0.12330
H2441       H  0.72734632  0.63896894  0.69329346     0.12350
C2442       C  0.79815318  0.64188053  0.69122802     0.61870
F2443       F  0.69757329  0.54881181  0.59276355    -0.23290
F2444       F  0.65494087  0.57576363  0.59938053    -0.20620
F2445       F  0.65571534  0.52986884  0.62960361    -0.20300
F2446       F  0.81122860  0.67834888  0.70675917    -0.20350
F2447       F  0.83038144  0.63452779  0.68579491    -0.20680
F2448       F  0.77054710  0.60827126  0.70759580    -0.23350
C2449       C  0.88079764  0.79297784  0.62827382    -0.06190
C2450       C  0.89412757  0.80153767  0.65530355    -0.00260
C2451       C  0.88843628  0.76739677  0.67182409    -0.08830
C2452       C  0.86774464  0.72646160  0.66044683    -0.06210
C2453       C  0.85859861  0.71721375  0.63218673    -0.00270
C2454       C  0.87261606  0.75497383  0.61522327    -0.08740
C2455       C  0.88950574  0.76440337  0.58539354     0.61640
H2456       H  0.88505884  0.81916985  0.61557402     0.12330
H2457       H  0.86454010  0.70175099  0.67319639     0.12350
C2458       C  0.90456069  0.77325495  0.70100966     0.61870
F2459       F  0.92687045  0.80209145  0.58448102    -0.23290
F2460       F  0.86254579  0.76961292  0.56918670    -0.20620
F2461       F  0.89847236  0.73562888  0.57372288    -0.20300
F2462       F  0.88683676  0.79154122  0.71752783    -0.20350
F2463       F  0.94711779  0.79851014  0.70045869    -0.20680
F2464       F  0.89555389  0.73537134  0.71308510    -0.23350
C2465       C  0.89841434  0.66770708  0.64316028    -0.06190
C2466       C  0.85710600  0.64342937  0.63420097    -0.00260
C2467       C  0.83929919  0.59781097  0.63509484    -0.08830
C2468       C  0.86347372  0.58094085  0.64459603    -0.06210
C2469       C  0.90527899  0.60593426  0.65050667    -0.00270
C2470       C  0.92280757  0.65033624  0.65061550    -0.08740
C2471       C  0.96738383  0.68011489  0.65794550     0.61640
H2472       H  0.91425789  0.70153923  0.64124910     0.12330
H2473       H  0.85017681  0.54705824  0.64604453     0.12350
C2474       C  0.79670236  0.56515148  0.62491092     0.61870
F2475       F  0.97607482  0.72156751  0.66120303    -0.23290
F2476       F  0.99352572  0.67930812  0.63746617    -0.20620
F2477       F  0.97509199  0.66758667  0.68255336    -0.20300
F2478       F  0.79101487  0.57507424  0.59874995    -0.20350
F2479       F  0.76631379  0.56205328  0.64317964    -0.20680
F2480       F  0.79171272  0.52490468  0.62289496    -0.23350
C2481       C  0.72077774  0.60795681  0.95398816    -0.06190
C2482       C  0.69049917  0.59554553  0.97504603    -0.00260
C2483       C  0.70213951  0.59668331  0.50245157    -0.08830
C2484       C  0.74413661  0.61360163  0.50782384    -0.06210
C2485       C  0.77586258  0.63625540  0.98784721    -0.00270
C2486       C  0.76333891  0.62696899  0.95951248    -0.08740
C2487       C  0.79241188  0.63422021  0.93482983     0.61640
H2488       H  0.71072037  0.60339661  0.93290008     0.12330
H2489       H  0.75183948  0.61085994  0.52856830     0.12350
C2490       C  0.67100843  0.58127181  0.52631343     0.61870
F2491       F  0.77218056  0.62511594  0.91002176    -0.23290
F2492       F  0.80945067  0.60829177  0.93634412    -0.20620
F2493       F  0.82316759  0.67548353  0.93345256    -0.20300
F2494       F  0.63990083  0.54026349  0.52155316    -0.20350
F2495       F  0.65444148  0.60761822  0.52993007    -0.20680
F2496       F  0.68930021  0.58173295  0.55059614    -0.23350
C2497       C  0.88300170  0.73745161  0.00291623    -0.06190
C2498       C  0.84351576  0.71286508  0.99065965    -0.00260
C2499       C  0.82965748  0.73611158  0.97394373    -0.08830
C2500       C  0.85877693  0.77794315  0.96647394    -0.06210
C2501       C  0.89711430  0.80048753  0.97872478    -0.00270
C2502       C  0.90914371  0.78073504  0.99793104    -0.08740
C2503       C  0.95047942  0.80498001  0.01190247     0.61640
H2504       H  0.89448256  0.72197939  0.01591928     0.12330
H2505       H  0.85019910  0.79487477  0.95228453     0.12350
C2506       C  0.78598598  0.72418049  0.96512924     0.61870
F2507       F  0.95753611  0.77956505  0.02924832    -0.23290
F2508       F  0.95161660  0.83774187  0.52738015    -0.20620
F2509       F  0.98194262  0.82146696  0.99214917    -0.20300
F2510       F  0.77976345  0.75837982  0.46931994    -0.20370
F2511       F  0.75463465  0.69209122  0.97971085    -0.20680
F2512       F  0.78152812  0.71450244  0.93733622    -0.23350
C2513       C  0.82574544  0.59742364  0.99132617    -0.06190
C2514       C  0.84557038  0.64168987  0.98558244    -0.00260
C2515       C  0.88702650  0.65987940  0.97357053    -0.08830
C2516       C  0.90788675  0.63657367  0.97506063    -0.06210
C2517       C  0.88854073  0.59415832  0.98295359    -0.00270
C2518       C  0.84585211  0.57345263  0.98998311    -0.08740
C2519       C  0.82139241  0.52678688  0.99760559     0.61640
H2520       H  0.79464803  0.58196630  0.99969085     0.12330
H2521       H  0.94003867  0.65147516  0.96829403     0.12350
C2522       C  0.91254809  0.70067098  0.95703569     0.61870
F2523       F  0.78091682  0.51411124  0.00543514    -0.23290
F2524       F  0.83952424  0.51887127  0.01950098    -0.20620
F2525       F  0.82011822  0.50239100  0.97510918    -0.20300
F2526       F  0.94644353  0.72860352  0.47205132    -0.20350
F2527       F  0.89196487  0.72076285  0.94889180    -0.20680
F2528       F  0.92705723  0.69129309  0.93284790    -0.23350
C2529       C  0.84664419  0.64930210  0.54389156    -0.06190
C2530       C  0.82278477  0.66472761  0.53134054    -0.00260
C2531       C  0.80537980  0.68349890  0.55021834    -0.08830
C2532       C  0.81035924  0.68165563  0.57883284    -0.06210
C2533       C  0.83388655  0.66574821  0.59088906    -0.00270
C2534       C  0.85634685  0.65326785  0.57188998    -0.08740
C2535       C  0.89698490  0.65360724  0.57764395     0.61640
H2536       H  0.86247328  0.63731479  0.53147991     0.12330
H2537       H  0.79644571  0.69434342  0.59306235     0.12350
C2538       C  0.78244470  0.70711539  0.54241504     0.61870
F2539       F  0.91958879  0.65643480  0.55378633    -0.23290
F2540       F  0.88949931  0.61700558  0.59040018    -0.20620
F2541       F  0.92316083  0.68875247  0.59268508    -0.20300
F2542       F  0.74635660  0.68114401  0.52932099    -0.20350
F2543       F  0.80717050  0.74193618  0.52651330    -0.20680
F2544       F  0.77089899  0.72260881  0.56519966    -0.23350
loop_ 
_geom_bond_atom_site_label_1 
_geom_bond_atom_site_label_2 
_geom_bond_distance 
_geom_bond_site_symmetry_2 
_ccdc_geom_bond_type 
C1          C304   1.618   1_556  S
C1          C577   1.579       .  S
C1          C590   1.572       .  S
C1          C606   1.599       .  S
C2          C208   1.622       .  S
C2          C227   1.621       .  S
C2          C240   1.580       .  S
C2          C307   1.582       .  S
C3          C147   1.597       .  S
C3          C160   1.583       .  S
C3          C176   1.593       .  S
C3          C192   1.566       .  S
C4           C99   1.616       .  S
C4          C112   1.613       .  S
C4          C131   1.582       .  S
C4          C195   1.593       .  S
N5            N6   1.320       .  A
N5           N11   1.316       .  A
N5          Mn34   2.216       .  S
N6           C13   1.359       .  A
N7            N9   1.314       .  A
N7            N8   1.319       .  A
N7          Mn23   2.209       .  S
N8           C14   1.355       .  A
N9           N10   1.316       .  A
N9          Mn34   2.170       .  S
N10          C14   1.348       .  A
N11          N12   1.318       .  A
N11         Mn23   2.181       .  S
N12          C13   1.346       .  A
C13         C144   1.490       .  S
C14         C256   1.480       .  S
N15          N16   1.326       .  A
N15        N1929   1.317       .  A
N15        Mn363   2.244   1_554  S
N16        C1932   1.360       .  A
N17          N18   1.323       .  A
N17          N19   1.313       .  A
N17       Mn1295   2.214       .  S
N18          C25   1.359       .  A
N19          N20   1.317       .  A
N19        Mn681   2.187   1_545  S
N20          C25   1.350       .  A
N21          N22   1.325       .  A
N21        N1923   1.317   1_445  A
N21        Mn341   2.205   1_554  S
N22          C24   1.352       .  A
Mn23       N1289   2.214   1_455  S
Mn23        N339   2.205       .  S
Mn23      Cl1319   2.549   1_455  S
C24        N1924   1.360   1_445  A
C24          C59   1.488       .  S
C25         C291   1.496       .  S
N26          N27   1.320       .  A
N26          N32   1.313       .  A
N26        Mn670   2.212       .  S
N27          C35   1.357       .  A
N28          N29   1.328       .  A
N28        N1938   1.317       .  A
N28         Mn46   2.240       .  S
N29         C672   1.359       .  A
N30          N31   1.323       .  A
N30        N1936   1.317   1_445  A
N30         Mn34   2.204       .  S
N31        C1308   1.351   1_455  A
N32          N33   1.319       .  A
N32       Mn1318   2.183   1_455  S
N33          C35   1.351       .  A
Mn34        N662   2.212   1_545  S
Mn34      Cl1319   2.542   1_455  S
C35         C163   1.486       .  S
C36         N665   1.359   1_545  A
C36        N1303   1.351       .  A
C36          C93   1.486       .  S
N37          N38   1.321       .  A
N37          N43   1.318       .  A
N37         Mn45   2.220       .  S
N38          C48   1.354       .  A
N39          N40   1.319       .  A
N39          N41   1.317       .  A
N39         Mn46   2.207       .  S
N40          C49   1.350       .  A
N41          N42   1.320       .  A
N41         Mn45   2.195       .  S
N42          C49   1.352       .  A
N43          N44   1.319       .  A
N43         Mn46   2.191       .  S
N44          C48   1.351       .  A
Mn45        N333   2.244       .  S
Mn45        N655   2.187       .  S
Mn45       Cl683   2.545       .  S
Mn46       N1304   2.183       .  S
Mn46       Cl683   2.549       .  S
Cl47      Mn1295   2.549       .  S
Cl47      Mn1306   2.542       .  S
Cl47       Mn681   2.545   1_545  S
Cl47       Mn682   2.549   1_545  S
C48         C179   1.483       .  S
C49         C275   1.468       .  S
N50          N51   1.318       .  A
N50          N56   1.311       .  A
N50        Mn715   2.191   1_545  S
N51          C58   1.355       .  A
N52          N53   1.329       .  A
N52        N1962   1.319   1_445  A
N52         Mn68   2.257       .  S
N53          C59   1.362       .  A
N54          N55   1.322       .  A
N54        N1960   1.319       .  A
N54         Mn79   2.197       .  S
N55        C1967   1.349       .  A
N56          N57   1.318       .  A
N56       Mn1340   2.183       .  S
N57          C58   1.352       .  A
C58         C243   1.492       .  S
C59        N1963   1.349   1_445  A
N60          N66   1.319       .  A
N60          N61   1.323       .  A
N60         Mn90   2.219       .  S
N61          C69   1.353       .  A
N62          N63   1.323       .  A
N62          N64   1.319       .  A
N62         Mn68   2.229       .  S
N63          C70   1.355       .  A
N64          N65   1.320       .  A
N64         Mn90   2.198       .  S
N65          C70   1.352       .  A
N66          N67   1.320       .  A
N66         Mn68   2.201       .  S
N67          C69   1.352       .  A
Mn68       N1328   2.183   1_455  S
Mn68      Cl1364   2.561       .  S
C69         C211   1.483       .  S
C70          C96   1.477       .  S
N71          N72   1.320       .  A
N71          N77   1.316       .  A
N71         Mn79   2.200       .  S
N72          C80   1.356       .  A
N73          N75   1.318       .  A
N73          N74   1.325       .  A
N73         Mn91   2.236       .  S
N74          C81   1.359       .  A
N75          N76   1.314       .  A
N75         Mn79   2.160       .  S
N76          C81   1.340       .  A
N77          N78   1.316       .  A
N77         Mn91   2.180       .  S
N78          C80   1.346       .  A
Mn79        N686   2.191       .  S
Mn79       Cl728   2.534       .  S
C80         C224   1.490       .  S
C81         C128   1.466       .  S
N82          N83   1.325       .  A
N82        N1996   1.317   1_445  A
N82         Mn90   2.232       .  S
N83        C1365   1.356   1_455  A
N84          N85   1.325       .  A
N84          N86   1.318       .  A
N84       Mn1363   2.233   1_455  S
N85          C94   1.357       .  A
N86          N87   1.321       .  A
N86        Mn726   2.209       .  S
N87          C94   1.352       .  A
N88          N89   1.326       .  A
N88        N1990   1.317       .  A
N88         Mn91   2.212       .  S
N89         C729   1.354       .  A
Mn90        N722   2.209   1_545  S
Mn90      Cl1364   2.545       .  S
Mn91       N1356   2.233       .  S
Mn91       Cl728   2.561       .  S
Cl92      Mn1340   2.561       .  S
Cl92       Mn715   2.534   1_545  S
Cl92      Mn1362   2.545       .  S
Cl92       Mn727   2.561   1_545  S
C93        N1355   1.356       .  A
C93         N725   1.354   1_545  A
C94         C115   1.486       .  S
C95          C96   1.387       .  A
C95         C100   1.407       .  A
C95         H102   1.086       .  S
C96          C97   1.400       .  A
C97         C104   1.514       .  S
C97          C98   1.406       .  A
C98          C99   1.432       .  A
C98         H103   1.076       .  S
C99         C100   1.460       .  A
C100        C101   1.526       .  S
C101        F105   1.388       .  S
C101        F106   1.354       .  S
C101        F107   1.377       .  S
C104        F108   1.383       .  S
C104        F109   1.370       .  S
C104        F110   1.384       .  S
C111        C112   1.433       .  A
C111        C116   1.405       .  A
C111        H118   1.070       .  S
C112        C113   1.454       .  A
C113        C120   1.523       .  S
C113        C114   1.419       .  A
C114        C115   1.394       .  A
C114        H119   1.085       .  S
C115        C116   1.402       .  A
C116        C117   1.523       .  S
C117        F121   1.384       .  S
C117        F122   1.383       .  S
C117        F759   1.383       .  S
C120        F124   1.385       .  S
C120        F125   1.363       .  S
C120        F126   1.384       .  S
F123        C753   1.383       .  S
C127        C128   1.387       .  A
C127        C132   1.412       .  A
C127        H134   1.083       .  S
C128        C129   1.404       .  A
C129        C136   1.521       .  S
C129        C130   1.407       .  A
C130        C131   1.422       .  A
C130        H135   1.070       .  S
C131        C132   1.453       .  A
C132        C133   1.525       .  S
C133        F137   1.385       .  S
C133        F138   1.374       .  S
C133        F139   1.380       .  S
C136        F140   1.383       .  S
C136        F141   1.383       .  S
C136        F142   1.385       .  S
C143        C144   1.390       .  A
C143        C148   1.400       .  A
C143        H150   1.086       .  S
C144        C145   1.420       .  A
C145        C152   1.520       .  S
C145        C146   1.411       .  A
C146        C147   1.414       .  A
C146        H151   1.073       .  S
C147        C148   1.457       .  A
C148        C149   1.533       .  S
C149        F153   1.387       .  S
C149        F154   1.362       .  S
C149        F155   1.382       .  S
C152        F156   1.383       .  S
C152        F157   1.384       .  S
C152        F158   1.385       .  S
C159        C160   1.425       .  A
C159        C164   1.408       .  A
C159        H166   1.068       .  S
C160        C161   1.456       .  A
C161        C168   1.533       .  S
C161        C162   1.407       .  A
C162        C163   1.390       .  A
C162        H167   1.083       .  S
C163        C164   1.411       .  A
C164        C165   1.521       .  S
C165        F169   1.385       .  S
C165        F170   1.382       .  S
C165        F171   1.384       .  S
C168        F172   1.379       .  S
C168        F173   1.371       .  S
C168        F174   1.386       .  S
C175        C176   1.417       .  A
C175        C180   1.402       .  A
C175        H182   1.065       .  S
C176        C177   1.450       .  A
C177        C184   1.529       .  S
C177        C178   1.412       .  A
C178        C179   1.397       .  A
C178        H183   1.084       .  S
C179        C180   1.411       .  A
C180        C181   1.523       .  S
C181        F185   1.385       .  S
C181        F186   1.384       .  S
C181        F187   1.383       .  S
C184        F188   1.372       .  S
C184        F189   1.380       .  S
C184        F190   1.386       .  S
C191        C192   1.414       .  A
C191        C196   1.413       .  A
C191        H198   1.074       .  S
C192        C193   1.435       .  A
C193        C200   1.542       .  S
C193        C194   1.397       .  A
C194        C195   1.416       .  A
C194        H199   1.069       .  S
C195        C196   1.453       .  A
C196        C197   1.538       .  S
C197        F201   1.387       .  S
C197        F202   1.381       .  S
C197        F203   1.367       .  S
C200        F204   1.380       .  S
C200        F205   1.373       .  S
C200        F206   1.386       .  S
C207        C208   1.436       .  A
C207        C212   1.406       .  A
C207        H214   1.072       .  S
C208        C209   1.460       .  A
C209        C216   1.531       .  S
C209        C210   1.416       .  A
C210        C211   1.393       .  A
C210        H215   1.086       .  S
C211        C212   1.398       .  A
C212        C213   1.519       .  S
C213        F217   1.383       .  S
C213        F218   1.382       .  S
C213        F219   1.384       .  S
C216        F220   1.384       .  S
C216        F221   1.373       .  S
C216        F222   1.387       .  S
C223        C224   1.391       .  A
C223        C228   1.405       .  A
C223        H230   1.086       .  S
C224        C225   1.413       .  A
C225        C232   1.524       .  S
C225        C226   1.406       .  A
C226        C227   1.417       .  A
C226        H231   1.056       .  S
C227        C228   1.464       .  A
C228        C229   1.536       .  S
C229        F233   1.388       .  S
C229        F234   1.380       .  S
C229        F235   1.360       .  S
C232        F236   1.383       .  S
C232        F237   1.384       .  S
C232        F238   1.384       .  S
C239        C240   1.420       .  A
C239        C244   1.399       .  A
C239        H246   1.074       .  S
C240        C241   1.452       .  A
C241        C248   1.527       .  S
C241        C242   1.410       .  A
C242        C243   1.396       .  A
C242        H247   1.081       .  S
C243        C244   1.412       .  A
C244        C245   1.515       .  S
C245        F249   1.385       .  S
C245        F250   1.383       .  S
C245        F251   1.373       .  S
C248        F252   1.376       .  S
C248        F253   1.379       .  S
C248        F254   1.385       .  S
C255        C256   1.402       .  A
C255        C260   1.413       .  A
C255        H262   1.081       .  S
C256        C575   1.404       .  A
C257        C264   1.517       .  S
C257        C258   1.400       .  A
C257        C574   1.404   1_554  A
C258        C577   1.419   1_554  A
C258        H263   1.074       .  S
C259        C319   1.579       .  S
C259        C260   1.444       .  A
C259        C576   1.419       .  A
C260        C261   1.527       .  S
C261        F265   1.385       .  S
C261        F266   1.380       .  S
C261        F267   1.366       .  S
C264        F268   1.383       .  S
C264        F269   1.383       .  S
C264        F270   1.374       .  S
C271        C272   1.431       .  A
C271        C276   1.403       .  A
C271        H278   1.080       .  S
C272        C319   1.572       .  S
C272        C273   1.458       .  A
C273        C280   1.535       .  S
C273        C274   1.409       .  A
C274        C275   1.392       .  A
C274        H279   1.086       .  S
C275        C276   1.398       .  A
C276        C277   1.518       .  S
C277        F281   1.384       .  S
C277        F283   1.383       .  S
C277        F600   1.383       .  S
C280        F285   1.363       .  S
C280        F286   1.382       .  S
C280        F602   1.387       .  S
F282        C595   1.383       .  S
F284        C598   1.387       .  S
C287        C288   1.430       .  A
C287        C292   1.406       .  A
C287        H294   1.077       .  S
C288        C319   1.599       .  S
C288        C289   1.454       .  A
C289        C296   1.533       .  S
C289        C290   1.412       .  A
C290        C291   1.397       .  A
C290        H295   1.085       .  S
C291        C292   1.416       .  A
C292        C293   1.523       .  S
C293        F297   1.385       .  S
C293        F298   1.384       .  S
C293        F299   1.383       .  S
C296        F301   1.366       .  S
C296        F302   1.386       .  S
C296        F618   1.383       .  S
F300        C614   1.383       .  S
C303        C304   1.421       .  A
C303        C308   1.402       .  A
C303        H310   1.063       .  S
C304        C305   1.454       .  A
C305        C312   1.542       .  S
C305        C306   1.413       .  A
C306        C307   1.412       .  A
C306        H311   1.080       .  S
C307        C308   1.442       .  A
C308        C309   1.543       .  S
C309        F313   1.387       .  S
C309        F314   1.374       .  S
C309        F315   1.376       .  S
C312        F316   1.369       .  S
C312        F317   1.373       .  S
C312        F318   1.385       .  S
C319        C622   1.618       .  S
C320        C526   1.622       .  S
C320        C545   1.621       .  S
C320        C558   1.580       .  S
C320        C625   1.582       .  S
C321        C465   1.597       .  S
C321        C478   1.583       .  S
C321        C494   1.593       .  S
C321        C510   1.566       .  S
C322        C417   1.616       .  S
C322        C430   1.613       .  S
C322        C449   1.582       .  S
C322        C513   1.593       .  S
N323        N324   1.320       .  A
N323        N329   1.316       .  A
N323       Mn352   2.216       .  S
N324        C331   1.359       .  A
N325        N327   1.314       .  A
N325        N326   1.319       .  A
N325       Mn341   2.209       .  S
N326        C332   1.355       .  A
N327        N328   1.316       .  A
N327       Mn352   2.170       .  S
N328        C332   1.348       .  A
N329        N330   1.318       .  A
N329       Mn341   2.181       .  S
N330        C331   1.346       .  A
C331        C462   1.490       .  S
C332        C574   1.480       .  S
N333       N2247   1.317       .  A
N333        N334   1.326       .  A
N334       C2250   1.360       .  A
N335        N336   1.323       .  A
N335        N337   1.313       .  A
N335      Mn1613   2.214       .  S
N336        C343   1.359       .  A
N337        N338   1.317       .  A
N337       Mn999   2.187   1_545  S
N338        C343   1.350       .  A
N339       N2241   1.317   1_445  A
N339        N340   1.325       .  A
N340        C342   1.352       .  A
Mn341      N1607   2.214   1_455  S
Mn341     Cl1637   2.549   1_455  S
C342       N2242   1.360   1_445  A
C342        C377   1.488       .  S
C343        C609   1.496       .  S
N344        N345   1.320       .  A
N344        N350   1.313       .  A
N344       Mn988   2.212       .  S
N345        C353   1.357       .  A
N346       N2256   1.317       .  A
N346        N347   1.328       .  A
N346       Mn364   2.240       .  S
N347        C990   1.359       .  A
N348       N2254   1.317   1_445  A
N348        N349   1.323       .  A
N348       Mn352   2.204       .  S
N349       C1626   1.351   1_455  A
N350        N351   1.319       .  A
N350      Mn1636   2.183   1_455  S
N351        C353   1.351       .  A
Mn352       N980   2.212   1_545  S
Mn352     Cl1637   2.542   1_455  S
C353        C481   1.486       .  S
C354        N983   1.359   1_545  A
C354       N1621   1.351       .  A
C354        C411   1.486       .  S
N355        N356   1.321       .  A
N355        N361   1.318       .  A
N355       Mn363   2.220       .  S
N356        C366   1.354       .  A
N357        N358   1.319       .  A
N357        N359   1.317       .  A
N357       Mn364   2.207       .  S
N358        C367   1.350       .  A
N359        N360   1.320       .  A
N359       Mn363   2.195       .  S
N360        C367   1.352       .  A
N361        N362   1.319       .  A
N361       Mn364   2.191       .  S
N362        C366   1.351       .  A
Mn363       N973   2.187       .  S
Mn363     Cl1001   2.545       .  S
Mn364      N1622   2.183       .  S
Mn364     Cl1001   2.549       .  S
Cl365     Mn1613   2.549       .  S
Cl365     Mn1624   2.542       .  S
Cl365      Mn999   2.545   1_545  S
Cl365     Mn1000   2.549   1_545  S
C366        C497   1.483       .  S
C367        C593   1.468       .  S
N368        N369   1.318       .  A
N368        N374   1.311       .  A
N368      Mn1033   2.191   1_545  S
N369        C376   1.355       .  A
N370       N2280   1.319   1_445  A
N370        N371   1.329       .  A
N370       Mn386   2.257       .  S
N371        C377   1.362       .  A
N372       N2278   1.319       .  A
N372        N373   1.322       .  A
N372       Mn397   2.197       .  S
N373       C2285   1.349       .  A
N374        N375   1.318       .  A
N374      Mn1658   2.183       .  S
N375        C376   1.352       .  A
C376        C561   1.492       .  S
C377       N2281   1.349   1_445  A
N378        N384   1.319       .  A
N378        N379   1.323       .  A
N378       Mn408   2.219       .  S
N379        C387   1.353       .  A
N380        N381   1.323       .  A
N380        N382   1.319       .  A
N380       Mn386   2.229       .  S
N381        C388   1.355       .  A
N382        N383   1.320       .  A
N382       Mn408   2.198       .  S
N383        C388   1.352       .  A
N384        N385   1.320       .  A
N384       Mn386   2.201       .  S
N385        C387   1.352       .  A
Mn386      N1646   2.183   1_455  S
Mn386     Cl1682   2.561       .  S
C387        C529   1.483       .  S
C388        C414   1.477       .  S
N389        N390   1.320       .  A
N389        N395   1.316       .  A
N389       Mn397   2.200       .  S
N390        C398   1.356       .  A
N391        N393   1.318       .  A
N391        N392   1.325       .  A
N391       Mn409   2.236       .  S
N392        C399   1.359       .  A
N393        N394   1.314       .  A
N393       Mn397   2.160       .  S
N394        C399   1.340       .  A
N395        N396   1.316       .  A
N395       Mn409   2.180       .  S
N396        C398   1.346       .  A
Mn397      N1004   2.191       .  S
Mn397     Cl1046   2.534       .  S
C398        C542   1.490       .  S
C399        C446   1.466       .  S
N400        N401   1.325       .  A
N400       N2314   1.317   1_445  A
N400       Mn408   2.232       .  S
N401       C1683   1.356   1_455  A
N402        N403   1.325       .  A
N402        N404   1.318       .  A
N402      Mn1681   2.233   1_455  S
N403        C412   1.357       .  A
N404        N405   1.321       .  A
N404      Mn1044   2.209       .  S
N405        C412   1.352       .  A
N406       N2308   1.317       .  A
N406        N407   1.326       .  A
N406       Mn409   2.212       .  S
N407       C1047   1.354       .  A
Mn408      N1040   2.209   1_545  S
Mn408     Cl1682   2.545       .  S
Mn409      N1674   2.233       .  S
Mn409     Cl1046   2.561       .  S
Cl410     Mn1658   2.561       .  S
Cl410     Mn1033   2.534   1_545  S
Cl410     Mn1680   2.545       .  S
Cl410     Mn1045   2.561   1_545  S
C411       N1673   1.356       .  A
C411       N1043   1.354   1_545  A
C412        C433   1.486       .  S
C413        C414   1.387       .  A
C413        C418   1.407       .  A
C413        H420   1.086       .  S
C414        C415   1.400       .  A
C415        C422   1.514       .  S
C415        C416   1.406       .  A
C416        C417   1.432       .  A
C416        H421   1.076       .  S
C417        C418   1.460       .  A
C418        C419   1.526       .  S
C419        F423   1.388       .  S
C419        F424   1.354       .  S
C419        F425   1.377       .  S
C422        F426   1.383       .  S
C422        F427   1.370       .  S
C422        F428   1.384       .  S
C429        C430   1.433       .  A
C429        C434   1.405       .  A
C429        H436   1.070       .  S
C430        C431   1.454       .  A
C431        C438   1.523       .  S
C431        C432   1.419       .  A
C432        C433   1.394       .  A
C432        H437   1.085       .  S
C433        C434   1.402       .  A
C434        C435   1.523       .  S
C435        F439   1.384       .  S
C435        F440   1.383       .  S
C435       F1077   1.383       .  S
C438        F442   1.385       .  S
C438        F443   1.363       .  S
C438        F444   1.384       .  S
F441       C1071   1.383       .  S
C445        C446   1.387       .  A
C445        C450   1.412       .  A
C445        H452   1.083       .  S
C446        C447   1.404       .  A
C447        C454   1.521       .  S
C447        C448   1.407       .  A
C448        C449   1.422       .  A
C448        H453   1.070       .  S
C449        C450   1.453       .  A
C450        C451   1.525       .  S
C451        F455   1.385       .  S
C451        F456   1.374       .  S
C451        F457   1.380       .  S
C454        F458   1.383       .  S
C454        F459   1.383       .  S
C454        F460   1.385       .  S
C461        C462   1.390       .  A
C461        C466   1.400       .  A
C461        H468   1.086       .  S
C462        C463   1.420       .  A
C463        C470   1.520       .  S
C463        C464   1.411       .  A
C464        C465   1.414       .  A
C464        H469   1.073       .  S
C465        C466   1.457       .  A
C466        C467   1.533       .  S
C467        F471   1.387       .  S
C467        F472   1.362       .  S
C467        F473   1.382       .  S
C470        F474   1.383       .  S
C470        F475   1.384       .  S
C470        F476   1.385       .  S
C477        C478   1.425       .  A
C477        C482   1.408       .  A
C477        H484   1.068       .  S
C478        C479   1.456       .  A
C479        C486   1.533       .  S
C479        C480   1.407       .  A
C480        C481   1.390       .  A
C480        H485   1.083       .  S
C481        C482   1.411       .  A
C482        C483   1.521       .  S
C483        F487   1.385       .  S
C483        F488   1.382       .  S
C483        F489   1.384       .  S
C486        F490   1.379       .  S
C486        F491   1.371       .  S
C486        F492   1.386       .  S
C493        C494   1.417       .  A
C493        C498   1.402       .  A
C493        H500   1.065       .  S
C494        C495   1.450       .  A
C495        C502   1.529       .  S
C495        C496   1.412       .  A
C496        C497   1.397       .  A
C496        H501   1.084       .  S
C497        C498   1.411       .  A
C498        C499   1.523       .  S
C499        F503   1.385       .  S
C499        F504   1.384       .  S
C499        F505   1.383       .  S
C502        F506   1.372       .  S
C502        F507   1.380       .  S
C502        F508   1.386       .  S
C509        C510   1.414       .  A
C509        C514   1.413       .  A
C509        H516   1.074       .  S
C510        C511   1.435       .  A
C511        C518   1.542       .  S
C511        C512   1.397       .  A
C512        C513   1.416       .  A
C512        H517   1.069       .  S
C513        C514   1.453       .  A
C514        C515   1.538       .  S
C515        F519   1.387       .  S
C515        F520   1.381       .  S
C515        F521   1.367       .  S
C518        F522   1.380       .  S
C518        F523   1.373       .  S
C518        F524   1.386       .  S
C525        C526   1.436       .  A
C525        C530   1.406       .  A
C525        H532   1.072       .  S
C526        C527   1.460       .  A
C527        C534   1.531       .  S
C527        C528   1.416       .  A
C528        C529   1.393       .  A
C528        H533   1.086       .  S
C529        C530   1.398       .  A
C530        C531   1.519       .  S
C531        F535   1.383       .  S
C531        F536   1.382       .  S
C531        F537   1.384       .  S
C534        F538   1.384       .  S
C534        F539   1.373       .  S
C534        F540   1.387       .  S
C541        C542   1.391       .  A
C541        C546   1.405       .  A
C541        H548   1.086       .  S
C542        C543   1.413       .  A
C543        C550   1.524       .  S
C543        C544   1.406       .  A
C544        C545   1.417       .  A
C544        H549   1.056       .  S
C545        C546   1.464       .  A
C546        C547   1.536       .  S
C547        F551   1.388       .  S
C547        F552   1.380       .  S
C547        F553   1.360       .  S
C550        F554   1.383       .  S
C550        F555   1.384       .  S
C550        F556   1.384       .  S
C557        C558   1.420       .  A
C557        C562   1.399       .  A
C557        H564   1.074       .  S
C558        C559   1.452       .  A
C559        C566   1.527       .  S
C559        C560   1.410       .  A
C560        C561   1.396       .  A
C560        H565   1.081       .  S
C561        C562   1.412       .  A
C562        C563   1.515       .  S
C563        F567   1.385       .  S
C563        F568   1.383       .  S
C563        F569   1.373       .  S
C566        F570   1.376       .  S
C566        F571   1.379       .  S
C566        F572   1.385       .  S
C573        C574   1.402       .  A
C573        C578   1.413       .  A
C573        H580   1.081       .  S
C575        C582   1.517       .  S
C575        C576   1.400       .  A
C576        H581   1.074       .  S
C577        C578   1.444       .  A
C578        C579   1.527       .  S
C579        F583   1.385       .  S
C579        F584   1.380       .  S
C579        F585   1.366       .  S
C582        F586   1.383       .  S
C582        F587   1.383       .  S
C582        F588   1.374       .  S
C589        C590   1.431   1_554  A
C589        C594   1.403   1_554  A
C589        H596   1.080       .  S
C590        C591   1.458       .  A
C591        C598   1.535       .  S
C591        C592   1.409       .  A
C592        C593   1.392       .  A
C592        H597   1.086       .  S
C593        C594   1.398       .  A
C594        C595   1.518   1_556  S
C595        F599   1.384       .  S
C595        F601   1.383   1_554  S
C598        F603   1.363       .  S
C598        F604   1.382       .  S
C605        C606   1.430       .  A
C605        C610   1.406       .  A
C605        H612   1.077       .  S
C606        C607   1.454       .  A
C607        C614   1.533       .  S
C607        C608   1.412       .  A
C608        C609   1.397       .  A
C608        H613   1.085       .  S
C609        C610   1.416       .  A
C610        C611   1.523       .  S
C611        F615   1.385   1_556  S
C611        F616   1.384   1_556  S
C611        F617   1.383       .  S
C614        F619   1.366       .  S
C614        F620   1.386       .  S
C621        C622   1.421       .  A
C621        C626   1.402       .  A
C621        H628   1.063       .  S
C622        C623   1.454       .  A
C623        C630   1.542       .  S
C623        C624   1.413       .  A
C624        C625   1.412       .  A
C624        H629   1.080       .  S
C625        C626   1.442       .  A
C626        C627   1.543       .  S
C627        F631   1.387       .  S
C627        F632   1.374       .  S
C627        F633   1.376       .  S
C630        F634   1.369       .  S
C630        F635   1.373       .  S
C630        F636   1.385       .  S
C637       C1213   1.579       .  S
C637       C1226   1.572       .  S
C637       C1242   1.599       .  S
C637        C940   1.618   1_556  S
C638        C844   1.622       .  S
C638        C863   1.621       .  S
C638        C876   1.580       .  S
C638        C943   1.582       .  S
C639        C783   1.597       .  S
C639        C796   1.583       .  S
C639        C812   1.593       .  S
C639        C828   1.566       .  S
C640        C735   1.616       .  S
C640        C748   1.613       .  S
C640        C767   1.582       .  S
C640        C831   1.593       .  S
N641        N642   1.320       .  A
N641        N647   1.316       .  A
N641       Mn670   2.216       .  S
N642        C649   1.359       .  A
N643        N645   1.314       .  A
N643        N644   1.319       .  A
N643       Mn659   2.209       .  S
N644        C650   1.355       .  A
N645        N646   1.316       .  A
N645       Mn670   2.170       .  S
N646        C650   1.348       .  A
N647        N648   1.318       .  A
N647       Mn659   2.181       .  S
N648        C649   1.346       .  A
C649        C780   1.490       .  S
C650        C892   1.480       .  S
N651       N1293   1.317   1_565  A
N651        N652   1.326       .  A
N651       Mn999   2.244   1_554  S
N652       C1296   1.360   1_565  A
N653        N654   1.323       .  A
N653        N655   1.313       .  A
N653      Mn1931   2.214       .  S
N654        C661   1.359       .  A
N655        N656   1.317       .  A
N656        C661   1.350       .  A
N657       N1287   1.317   1_455  A
N657        N658   1.325       .  A
N657       Mn977   2.205   1_554  S
N658        C660   1.352       .  A
Mn659      N1925   2.214   1_455  S
Mn659       N975   2.205       .  S
Mn659     Cl1955   2.549   1_455  S
C660       N1288   1.360   1_455  A
C660        C695   1.488       .  S
C661        C927   1.496       .  S
N662        N663   1.320       .  A
N662        N668   1.313       .  A
N663        C671   1.357       .  A
N664       N1302   1.317   1_565  A
N664        N665   1.328       .  A
N664       Mn682   2.240       .  S
N666       N1300   1.317   1_455  A
N666        N667   1.323       .  A
N666       Mn670   2.204       .  S
N667       C1944   1.351   1_455  A
N668        N669   1.319       .  A
N668      Mn1954   2.183   1_455  S
N669        C671   1.351       .  A
Mn670     Cl1955   2.542   1_455  S
C671        C799   1.486       .  S
C672       N1939   1.351       .  A
C672        C729   1.486       .  S
N673        N674   1.321       .  A
N673        N679   1.318       .  A
N673       Mn681   2.220       .  S
N674        C684   1.354       .  A
N675        N676   1.319       .  A
N675        N677   1.317       .  A
N675       Mn682   2.207       .  S
N676        C685   1.350       .  A
N677        N678   1.320       .  A
N677       Mn681   2.195       .  S
N678        C685   1.352       .  A
N679        N680   1.319       .  A
N679       Mn682   2.191       .  S
N680        C684   1.351       .  A
Mn681       N969   2.244       .  S
Mn682      N1940   2.183       .  S
Cl683     Mn1931   2.549       .  S
Cl683     Mn1942   2.542       .  S
C684        C815   1.483       .  S
C685        C911   1.468       .  S
N686        N687   1.318       .  A
N686        N692   1.311       .  A
N687        C694   1.355       .  A
N688       N1326   1.319   1_455  A
N688        N689   1.329       .  A
N688       Mn704   2.257       .  S
N689        C695   1.362       .  A
N690       N1324   1.319   1_565  A
N690        N691   1.322       .  A
N690       Mn715   2.197       .  S
N691       C1331   1.349   1_565  A
N692        N693   1.318       .  A
N692      Mn1976   2.183       .  S
N693        C694   1.352       .  A
C694        C879   1.492       .  S
C695       N1327   1.349   1_455  A
N696        N702   1.319       .  A
N696        N697   1.323       .  A
N696       Mn726   2.219       .  S
N697        C705   1.353       .  A
N698        N699   1.323       .  A
N698        N700   1.319       .  A
N698       Mn704   2.229       .  S
N699        C706   1.355       .  A
N700        N701   1.320       .  A
N700       Mn726   2.198       .  S
N701        C706   1.352       .  A
N702        N703   1.320       .  A
N702       Mn704   2.201       .  S
N703        C705   1.352       .  A
Mn704      N1964   2.183   1_455  S
Mn704     Cl2000   2.561       .  S
C705        C847   1.483       .  S
C706        C732   1.477       .  S
N707        N708   1.320       .  A
N707        N713   1.316       .  A
N707       Mn715   2.200       .  S
N708        C716   1.356       .  A
N709        N711   1.318       .  A
N709        N710   1.325       .  A
N709       Mn727   2.236       .  S
N710        C717   1.359       .  A
N711        N712   1.314       .  A
N711       Mn715   2.160       .  S
N712        C717   1.340       .  A
N713        N714   1.316       .  A
N713       Mn727   2.180       .  S
N714        C716   1.346       .  A
C716        C860   1.490       .  S
C717        C764   1.466       .  S
N718        N719   1.325       .  A
N718       N1360   1.317   1_455  A
N718       Mn726   2.232       .  S
N719       C2001   1.356   1_455  A
N720        N721   1.325       .  A
N720        N722   1.318       .  A
N720      Mn1999   2.233   1_455  S
N721        C730   1.357       .  A
N722        N723   1.321       .  A
N723        C730   1.352       .  A
N724       N1354   1.317   1_565  A
N724        N725   1.326       .  A
N724       Mn727   2.212       .  S
Mn726     Cl2000   2.545       .  S
Mn727      N1992   2.233       .  S
Cl728     Mn1976   2.561       .  S
Cl728     Mn1998   2.545       .  S
C729       N1991   1.356       .  A
C730        C751   1.486       .  S
C731        C732   1.387       .  A
C731        C736   1.407       .  A
C731        H738   1.086       .  S
C732        C733   1.400       .  A
C733        C740   1.514       .  S
C733        C734   1.406       .  A
C734        C735   1.432       .  A
C734        H739   1.076       .  S
C735        C736   1.460       .  A
C736        C737   1.526       .  S
C737        F741   1.388       .  S
C737        F742   1.354       .  S
C737        F743   1.377       .  S
C740        F744   1.383       .  S
C740        F745   1.370       .  S
C740        F746   1.384       .  S
C747        C748   1.433       .  A
C747        C752   1.405       .  A
C747        H754   1.070       .  S
C748        C749   1.454       .  A
C749        C756   1.523       .  S
C749        C750   1.419       .  A
C750        C751   1.394       .  A
C750        H755   1.085       .  S
C751        C752   1.402       .  A
C752        C753   1.523       .  S
C753        F757   1.384       .  S
C753        F758   1.383       .  S
C756        F760   1.385       .  S
C756        F761   1.363       .  S
C756        F762   1.384       .  S
C763        C764   1.387       .  A
C763        C768   1.412       .  A
C763        H770   1.083       .  S
C764        C765   1.404       .  A
C765        C772   1.521       .  S
C765        C766   1.407       .  A
C766        C767   1.422       .  A
C766        H771   1.070       .  S
C767        C768   1.453       .  A
C768        C769   1.525       .  S
C769        F773   1.385       .  S
C769        F774   1.374       .  S
C769        F775   1.380       .  S
C772        F776   1.383       .  S
C772        F777   1.383       .  S
C772        F778   1.385       .  S
C779        C780   1.390       .  A
C779        C784   1.400       .  A
C779        H786   1.086       .  S
C780        C781   1.420       .  A
C781        C788   1.520       .  S
C781        C782   1.411       .  A
C782        C783   1.414       .  A
C782        H787   1.073       .  S
C783        C784   1.457       .  A
C784        C785   1.533       .  S
C785        F789   1.387       .  S
C785        F790   1.362       .  S
C785        F791   1.382       .  S
C788        F792   1.383       .  S
C788        F793   1.384       .  S
C788        F794   1.385       .  S
C795        C796   1.425       .  A
C795        C800   1.408       .  A
C795        H802   1.068       .  S
C796        C797   1.456       .  A
C797        C804   1.533       .  S
C797        C798   1.407       .  A
C798        C799   1.390       .  A
C798        H803   1.083       .  S
C799        C800   1.411       .  A
C800        C801   1.521       .  S
C801        F805   1.385       .  S
C801        F806   1.382       .  S
C801        F807   1.384       .  S
C804        F808   1.379       .  S
C804        F809   1.371       .  S
C804        F810   1.386       .  S
C811        C812   1.417       .  A
C811        C816   1.402       .  A
C811        H818   1.065       .  S
C812        C813   1.450       .  A
C813        C820   1.529       .  S
C813        C814   1.412       .  A
C814        C815   1.397       .  A
C814        H819   1.084       .  S
C815        C816   1.411       .  A
C816        C817   1.523       .  S
C817        F821   1.385       .  S
C817        F822   1.384       .  S
C817        F823   1.383       .  S
C820        F824   1.372       .  S
C820        F825   1.380       .  S
C820        F826   1.386       .  S
C827        C828   1.414       .  A
C827        C832   1.413       .  A
C827        H834   1.074       .  S
C828        C829   1.435       .  A
C829        C836   1.542       .  S
C829        C830   1.397       .  A
C830        C831   1.416       .  A
C830        H835   1.069       .  S
C831        C832   1.453       .  A
C832        C833   1.538       .  S
C833        F837   1.387       .  S
C833        F838   1.381       .  S
C833        F839   1.367       .  S
C836        F840   1.380       .  S
C836        F841   1.373       .  S
C836        F842   1.386       .  S
C843        C844   1.436       .  A
C843        C848   1.406       .  A
C843        H850   1.072       .  S
C844        C845   1.460       .  A
C845        C852   1.531       .  S
C845        C846   1.416       .  A
C846        C847   1.393       .  A
C846        H851   1.086       .  S
C847        C848   1.398       .  A
C848        C849   1.519       .  S
C849        F853   1.383       .  S
C849        F854   1.382       .  S
C849        F855   1.384       .  S
C852        F856   1.384       .  S
C852        F857   1.373       .  S
C852        F858   1.387       .  S
C859        C860   1.391       .  A
C859        C864   1.405       .  A
C859        H866   1.086       .  S
C860        C861   1.413       .  A
C861        C868   1.524       .  S
C861        C862   1.406       .  A
C862        C863   1.417       .  A
C862        H867   1.056       .  S
C863        C864   1.464       .  A
C864        C865   1.536       .  S
C865        F869   1.388       .  S
C865        F870   1.380       .  S
C865        F871   1.360       .  S
C868        F872   1.383       .  S
C868        F873   1.384       .  S
C868        F874   1.384       .  S
C875        C876   1.420       .  A
C875        C880   1.399       .  A
C875        H882   1.074       .  S
C876        C877   1.452       .  A
C877        C884   1.527       .  S
C877        C878   1.410       .  A
C878        C879   1.396       .  A
C878        H883   1.081       .  S
C879        C880   1.412       .  A
C880        C881   1.515       .  S
C881        F885   1.385       .  S
C881        F886   1.383       .  S
C881        F887   1.373       .  S
C884        F888   1.376       .  S
C884        F889   1.379       .  S
C884        F890   1.385       .  S
C891        C892   1.402       .  A
C891        C896   1.413       .  A
C891        H898   1.081       .  S
C892       C1211   1.404       .  A
C893        C900   1.517       .  S
C893       C1210   1.404   1_554  A
C893        C894   1.400       .  A
C894       C1213   1.419   1_554  A
C894        H899   1.074       .  S
C895        C955   1.579       .  S
C895       C1212   1.419       .  A
C895        C896   1.444       .  A
C896        C897   1.527       .  S
C897        F901   1.385       .  S
C897        F902   1.380       .  S
C897        F903   1.366       .  S
C900        F904   1.383       .  S
C900        F905   1.383       .  S
C900        F906   1.374       .  S
C907        C908   1.431       .  A
C907        C912   1.403       .  A
C907        H914   1.080       .  S
C908        C955   1.572       .  S
C908        C909   1.458       .  A
C909        C916   1.535       .  S
C909        C910   1.409       .  A
C910        C911   1.392       .  A
C910        H915   1.086       .  S
C911        C912   1.398       .  A
C912        C913   1.518       .  S
C913        F917   1.384       .  S
C913       F1236   1.383       .  S
C913        F919   1.383       .  S
C916       F1238   1.387       .  S
C916        F921   1.363       .  S
C916        F922   1.382       .  S
F918       C1231   1.383       .  S
F920       C1234   1.387       .  S
C923        C924   1.430       .  A
C923        C928   1.406       .  A
C923        H930   1.077       .  S
C924        C955   1.599       .  S
C924        C925   1.454       .  A
C925        C932   1.533       .  S
C925        C926   1.412       .  A
C926        C927   1.397       .  A
C926        H931   1.085       .  S
C927        C928   1.416       .  A
C928        C929   1.523       .  S
C929        F933   1.385       .  S
C929        F934   1.384       .  S
C929        F935   1.383       .  S
C932       F1254   1.383       .  S
C932        F937   1.366       .  S
C932        F938   1.386       .  S
F936       C1250   1.383       .  S
C939        C940   1.421       .  A
C939        C944   1.402       .  A
C939        H946   1.063       .  S
C940        C941   1.454       .  A
C941        C948   1.542       .  S
C941        C942   1.413       .  A
C942        C943   1.412       .  A
C942        H947   1.080       .  S
C943        C944   1.442       .  A
C944        C945   1.543       .  S
C945        F949   1.387       .  S
C945        F950   1.374       .  S
C945        F951   1.376       .  S
C948        F952   1.369       .  S
C948        F953   1.373       .  S
C948        F954   1.385       .  S
C955       C1258   1.618       .  S
C956       C1162   1.622       .  S
C956       C1181   1.621       .  S
C956       C1194   1.580       .  S
C956       C1261   1.582       .  S
C957       C1101   1.597       .  S
C957       C1114   1.583       .  S
C957       C1130   1.593       .  S
C957       C1146   1.566       .  S
C958       C1053   1.616       .  S
C958       C1066   1.613       .  S
C958       C1085   1.582       .  S
C958       C1149   1.593       .  S
N959        N960   1.320       .  A
N959        N965   1.316       .  A
N959       Mn988   2.216       .  S
N960        C967   1.359       .  A
N961        N963   1.314       .  A
N961        N962   1.319       .  A
N961       Mn977   2.209       .  S
N962        C968   1.355       .  A
N963        N964   1.316       .  A
N963       Mn988   2.170       .  S
N964        C968   1.348       .  A
N965        N966   1.318       .  A
N965       Mn977   2.181       .  S
N966        C967   1.346       .  A
C967       C1098   1.490       .  S
C968       C1210   1.480       .  S
N969       N1611   1.317   1_565  A
N969        N970   1.326       .  A
N970       C1614   1.360   1_565  A
N971        N972   1.323       .  A
N971        N973   1.313       .  A
N971      Mn2249   2.214       .  S
N972        C979   1.359       .  A
N973        N974   1.317       .  A
N974        C979   1.350       .  A
N975       N1605   1.317   1_455  A
N975        N976   1.325       .  A
N976        C978   1.352       .  A
Mn977      N2243   2.214   1_455  S
Mn977     Cl2273   2.549   1_455  S
C978       N1606   1.360   1_455  A
C978       C1013   1.488       .  S
C979       C1245   1.496       .  S
N980        N981   1.320       .  A
N980        N986   1.313       .  A
N981        C989   1.357       .  A
N982       N1620   1.317   1_565  A
N982        N983   1.328       .  A
N982      Mn1000   2.240       .  S
N984       N1618   1.317   1_455  A
N984        N985   1.323       .  A
N984       Mn988   2.204       .  S
N985       C2262   1.351   1_455  A
N986        N987   1.319       .  A
N986      Mn2272   2.183   1_455  S
N987        C989   1.351       .  A
Mn988     Cl2273   2.542   1_455  S
C989       C1117   1.486       .  S
C990       N2257   1.351       .  A
C990       C1047   1.486       .  S
N991        N992   1.321       .  A
N991        N997   1.318       .  A
N991       Mn999   2.220       .  S
N992       C1002   1.354       .  A
N993        N994   1.319       .  A
N993        N995   1.317       .  A
N993      Mn1000   2.207       .  S
N994       C1003   1.350       .  A
N995        N996   1.320       .  A
N995       Mn999   2.195       .  S
N996       C1003   1.352       .  A
N997        N998   1.319       .  A
N997      Mn1000   2.191       .  S
N998       C1002   1.351       .  A
Mn1000     N2258   2.183       .  S
Cl1001    Mn2249   2.549       .  S
Cl1001    Mn2260   2.542       .  S
C1002      C1133   1.483       .  S
C1003      C1229   1.468       .  S
N1004      N1005   1.318       .  A
N1004      N1010   1.311       .  A
N1005      C1012   1.355       .  A
N1006      N1644   1.319   1_455  A
N1006      N1007   1.329       .  A
N1006     Mn1022   2.257       .  S
N1007      C1013   1.362       .  A
N1008      N1642   1.319   1_565  A
N1008      N1009   1.322       .  A
N1008     Mn1033   2.197       .  S
N1009      C1649   1.349   1_565  A
N1010      N1011   1.318       .  A
N1010     Mn2294   2.183       .  S
N1011      C1012   1.352       .  A
C1012      C1197   1.492       .  S
C1013      N1645   1.349   1_455  A
N1014      N1020   1.319       .  A
N1014      N1015   1.323       .  A
N1014     Mn1044   2.219       .  S
N1015      C1023   1.353       .  A
N1016      N1017   1.323       .  A
N1016      N1018   1.319       .  A
N1016     Mn1022   2.229       .  S
N1017      C1024   1.355       .  A
N1018      N1019   1.320       .  A
N1018     Mn1044   2.198       .  S
N1019      C1024   1.352       .  A
N1020      N1021   1.320       .  A
N1020     Mn1022   2.201       .  S
N1021      C1023   1.352       .  A
Mn1022     N2282   2.183   1_455  S
Mn1022    Cl2318   2.561       .  S
C1023      C1165   1.483       .  S
C1024      C1050   1.477       .  S
N1025      N1026   1.320       .  A
N1025      N1031   1.316       .  A
N1025     Mn1033   2.200       .  S
N1026      C1034   1.356       .  A
N1027      N1029   1.318       .  A
N1027      N1028   1.325       .  A
N1027     Mn1045   2.236       .  S
N1028      C1035   1.359       .  A
N1029      N1030   1.314       .  A
N1029     Mn1033   2.160       .  S
N1030      C1035   1.340       .  A
N1031      N1032   1.316       .  A
N1031     Mn1045   2.180       .  S
N1032      C1034   1.346       .  A
C1034      C1178   1.490       .  S
C1035      C1082   1.466       .  S
N1036      N1037   1.325       .  A
N1036      N1678   1.317   1_455  A
N1036     Mn1044   2.232       .  S
N1037      C2319   1.356   1_455  A
N1038      N1039   1.325       .  A
N1038      N1040   1.318       .  A
N1038     Mn2317   2.233   1_455  S
N1039      C1048   1.357       .  A
N1040      N1041   1.321       .  A
N1041      C1048   1.352       .  A
N1042      N1672   1.317   1_565  A
N1042      N1043   1.326       .  A
N1042     Mn1045   2.212       .  S
Mn1044    Cl2318   2.545       .  S
Mn1045     N2310   2.233       .  S
Cl1046    Mn2294   2.561       .  S
Cl1046    Mn2316   2.545       .  S
C1047      N2309   1.356       .  A
C1048      C1069   1.486       .  S
C1049      C1050   1.387       .  A
C1049      C1054   1.407       .  A
C1049      H1056   1.086       .  S
C1050      C1051   1.400       .  A
C1051      C1058   1.514       .  S
C1051      C1052   1.406       .  A
C1052      C1053   1.432       .  A
C1052      H1057   1.076       .  S
C1053      C1054   1.460       .  A
C1054      C1055   1.526       .  S
C1055      F1059   1.388       .  S
C1055      F1060   1.354       .  S
C1055      F1061   1.377       .  S
C1058      F1062   1.383       .  S
C1058      F1063   1.370       .  S
C1058      F1064   1.384       .  S
C1065      C1066   1.433       .  A
C1065      C1070   1.405       .  A
C1065      H1072   1.070       .  S
C1066      C1067   1.454       .  A
C1067      C1074   1.523       .  S
C1067      C1068   1.419       .  A
C1068      C1069   1.394       .  A
C1068      H1073   1.085       .  S
C1069      C1070   1.402       .  A
C1070      C1071   1.523       .  S
C1071      F1075   1.384       .  S
C1071      F1076   1.383       .  S
C1074      F1078   1.385       .  S
C1074      F1079   1.363       .  S
C1074      F1080   1.384       .  S
C1081      C1082   1.387       .  A
C1081      C1086   1.412       .  A
C1081      H1088   1.083       .  S
C1082      C1083   1.404       .  A
C1083      C1090   1.521       .  S
C1083      C1084   1.407       .  A
C1084      C1085   1.422       .  A
C1084      H1089   1.070       .  S
C1085      C1086   1.453       .  A
C1086      C1087   1.525       .  S
C1087      F1091   1.385       .  S
C1087      F1092   1.374       .  S
C1087      F1093   1.380       .  S
C1090      F1094   1.383       .  S
C1090      F1095   1.383       .  S
C1090      F1096   1.385       .  S
C1097      C1098   1.390       .  A
C1097      C1102   1.400       .  A
C1097      H1104   1.086       .  S
C1098      C1099   1.420       .  A
C1099      C1106   1.520       .  S
C1099      C1100   1.411       .  A
C1100      C1101   1.414       .  A
C1100      H1105   1.073       .  S
C1101      C1102   1.457       .  A
C1102      C1103   1.533       .  S
C1103      F1107   1.387       .  S
C1103      F1108   1.362       .  S
C1103      F1109   1.382       .  S
C1106      F1110   1.383       .  S
C1106      F1111   1.384       .  S
C1106      F1112   1.385       .  S
C1113      C1114   1.425       .  A
C1113      C1118   1.408       .  A
C1113      H1120   1.068       .  S
C1114      C1115   1.456       .  A
C1115      C1122   1.533       .  S
C1115      C1116   1.407       .  A
C1116      C1117   1.390       .  A
C1116      H1121   1.083       .  S
C1117      C1118   1.411       .  A
C1118      C1119   1.521       .  S
C1119      F1123   1.385       .  S
C1119      F1124   1.382       .  S
C1119      F1125   1.384       .  S
C1122      F1126   1.379       .  S
C1122      F1127   1.371       .  S
C1122      F1128   1.386       .  S
C1129      C1130   1.417       .  A
C1129      C1134   1.402       .  A
C1129      H1136   1.065       .  S
C1130      C1131   1.450       .  A
C1131      C1138   1.529       .  S
C1131      C1132   1.412       .  A
C1132      C1133   1.397       .  A
C1132      H1137   1.084       .  S
C1133      C1134   1.411       .  A
C1134      C1135   1.523       .  S
C1135      F1139   1.385       .  S
C1135      F1140   1.384       .  S
C1135      F1141   1.383       .  S
C1138      F1142   1.372       .  S
C1138      F1143   1.380       .  S
C1138      F1144   1.386       .  S
C1145      C1146   1.414       .  A
C1145      C1150   1.413       .  A
C1145      H1152   1.074       .  S
C1146      C1147   1.435       .  A
C1147      C1154   1.542       .  S
C1147      C1148   1.397       .  A
C1148      C1149   1.416       .  A
C1148      H1153   1.069       .  S
C1149      C1150   1.453       .  A
C1150      C1151   1.538       .  S
C1151      F1155   1.387       .  S
C1151      F1156   1.381       .  S
C1151      F1157   1.367       .  S
C1154      F1158   1.380       .  S
C1154      F1159   1.373       .  S
C1154      F1160   1.386       .  S
C1161      C1162   1.436       .  A
C1161      C1166   1.406       .  A
C1161      H1168   1.072       .  S
C1162      C1163   1.460       .  A
C1163      C1170   1.531       .  S
C1163      C1164   1.416       .  A
C1164      C1165   1.393       .  A
C1164      H1169   1.086       .  S
C1165      C1166   1.398       .  A
C1166      C1167   1.519       .  S
C1167      F1171   1.383       .  S
C1167      F1172   1.382       .  S
C1167      F1173   1.384       .  S
C1170      F1174   1.384       .  S
C1170      F1175   1.373       .  S
C1170      F1176   1.387       .  S
C1177      C1178   1.391       .  A
C1177      C1182   1.405       .  A
C1177      H1184   1.086       .  S
C1178      C1179   1.413       .  A
C1179      C1186   1.524       .  S
C1179      C1180   1.406       .  A
C1180      C1181   1.417       .  A
C1180      H1185   1.056       .  S
C1181      C1182   1.464       .  A
C1182      C1183   1.536       .  S
C1183      F1187   1.388       .  S
C1183      F1188   1.380       .  S
C1183      F1189   1.360       .  S
C1186      F1190   1.383       .  S
C1186      F1191   1.384       .  S
C1186      F1192   1.384       .  S
C1193      C1194   1.420       .  A
C1193      C1198   1.399       .  A
C1193      H1200   1.074       .  S
C1194      C1195   1.452       .  A
C1195      C1202   1.527       .  S
C1195      C1196   1.410       .  A
C1196      C1197   1.396       .  A
C1196      H1201   1.081       .  S
C1197      C1198   1.412       .  A
C1198      C1199   1.515       .  S
C1199      F1203   1.385       .  S
C1199      F1204   1.383       .  S
C1199      F1205   1.373       .  S
C1202      F1206   1.376       .  S
C1202      F1207   1.379       .  S
C1202      F1208   1.385       .  S
C1209      C1210   1.402       .  A
C1209      C1214   1.413       .  A
C1209      H1216   1.081       .  S
C1211      C1218   1.517       .  S
C1211      C1212   1.400       .  A
C1212      H1217   1.074       .  S
C1213      C1214   1.444       .  A
C1214      C1215   1.527       .  S
C1215      F1219   1.385       .  S
C1215      F1220   1.380       .  S
C1215      F1221   1.366       .  S
C1218      F1222   1.383       .  S
C1218      F1223   1.383       .  S
C1218      F1224   1.374       .  S
C1225      C1226   1.431   1_554  A
C1225      C1230   1.403   1_554  A
C1225      H1232   1.080       .  S
C1226      C1227   1.458       .  A
C1227      C1234   1.535       .  S
C1227      C1228   1.409       .  A
C1228      C1229   1.392       .  A
C1228      H1233   1.086       .  S
C1229      C1230   1.398       .  A
C1230      C1231   1.518   1_556  S
C1231      F1235   1.384       .  S
C1231      F1237   1.383   1_554  S
C1234      F1239   1.363       .  S
C1234      F1240   1.382       .  S
C1241      C1242   1.430       .  A
C1241      C1246   1.406       .  A
C1241      H1248   1.077       .  S
C1242      C1243   1.454       .  A
C1243      C1250   1.533       .  S
C1243      C1244   1.412       .  A
C1244      C1245   1.397       .  A
C1244      H1249   1.085       .  S
C1245      C1246   1.416       .  A
C1246      C1247   1.523       .  S
C1247      F1251   1.385   1_556  S
C1247      F1252   1.384   1_556  S
C1247      F1253   1.383       .  S
C1250      F1255   1.366       .  S
C1250      F1256   1.386       .  S
C1257      C1258   1.421       .  A
C1257      C1262   1.402       .  A
C1257      H1264   1.063       .  S
C1258      C1259   1.454       .  A
C1259      C1266   1.542       .  S
C1259      C1260   1.413       .  A
C1260      C1261   1.412       .  A
C1260      H1265   1.080       .  S
C1261      C1262   1.442       .  A
C1262      C1263   1.543       .  S
C1263      F1267   1.387       .  S
C1263      F1268   1.374       .  S
C1263      F1269   1.376       .  S
C1266      F1270   1.369       .  S
C1266      F1271   1.373       .  S
C1266      F1272   1.385       .  S
C1273      C1849   1.579       .  S
C1273      C1862   1.572       .  S
C1273      C1878   1.599       .  S
C1273      C1576   1.618   1_556  S
C1274      C1480   1.622       .  S
C1274      C1499   1.621       .  S
C1274      C1512   1.580       .  S
C1274      C1579   1.582       .  S
C1275      C1419   1.597       .  S
C1275      C1432   1.583       .  S
C1275      C1448   1.593       .  S
C1275      C1464   1.566       .  S
C1276      C1371   1.616       .  S
C1276      C1384   1.613       .  S
C1276      C1403   1.582       .  S
C1276      C1467   1.593       .  S
N1277      N1278   1.320       .  A
N1277      N1283   1.316       .  A
N1277     Mn1306   2.216       .  S
N1278      C1285   1.359       .  A
N1279      N1281   1.314       .  A
N1279      N1280   1.319       .  A
N1279     Mn1295   2.209       .  S
N1280      C1286   1.355       .  A
N1281      N1282   1.316       .  A
N1281     Mn1306   2.170       .  S
N1282      C1286   1.348       .  A
N1283      N1284   1.318       .  A
N1283     Mn1295   2.181       .  S
N1284      C1285   1.346       .  A
C1285      C1416   1.490       .  S
C1286      C1528   1.480       .  S
N1287      N1288   1.326       .  A
N1287     Mn1635   2.244   1_554  S
N1289      N1290   1.323       .  A
N1289      N1291   1.313       .  A
N1290      C1297   1.359       .  A
N1291      N1292   1.317       .  A
N1291     Mn1953   2.187   1_545  S
N1292      C1297   1.350       .  A
N1293      N1294   1.325       .  A
N1293     Mn1613   2.205   1_554  S
N1294      C1296   1.352       .  A
Mn1295     N1611   2.205       .  S
C1296      C1331   1.488       .  S
C1297      C1563   1.496       .  S
N1298      N1299   1.320       .  A
N1298      N1304   1.313       .  A
N1298     Mn1942   2.212       .  S
N1299      C1307   1.357       .  A
N1300      N1301   1.328       .  A
N1300     Mn1318   2.240       .  S
N1301      C1944   1.359       .  A
N1302      N1303   1.323       .  A
N1302     Mn1306   2.204       .  S
N1304      N1305   1.319       .  A
N1305      C1307   1.351       .  A
Mn1306     N1934   2.212   1_545  S
C1307      C1435   1.486       .  S
C1308      N1937   1.359   1_545  A
C1308      C1365   1.486       .  S
N1309      N1310   1.321       .  A
N1309      N1315   1.318       .  A
N1309     Mn1317   2.220       .  S
N1310      C1320   1.354       .  A
N1311      N1312   1.319       .  A
N1311      N1313   1.317       .  A
N1311     Mn1318   2.207       .  S
N1312      C1321   1.350       .  A
N1313      N1314   1.320       .  A
N1313     Mn1317   2.195       .  S
N1314      C1321   1.352       .  A
N1315      N1316   1.319       .  A
N1315     Mn1318   2.191       .  S
N1316      C1320   1.351       .  A
Mn1317     N1605   2.244       .  S
Mn1317     N1927   2.187       .  S
Mn1317    Cl1955   2.545       .  S
Mn1318    Cl1955   2.549       .  S
Cl1319    Mn1953   2.545   1_545  S
Cl1319    Mn1954   2.549   1_545  S
C1320      C1451   1.483       .  S
C1321      C1547   1.468       .  S
N1322      N1323   1.318       .  A
N1322      N1328   1.311       .  A
N1322     Mn1987   2.191   1_545  S
N1323      C1330   1.355       .  A
N1324      N1325   1.329       .  A
N1324     Mn1340   2.257       .  S
N1325      C1331   1.362       .  A
N1326      N1327   1.322       .  A
N1326     Mn1351   2.197       .  S
N1328      N1329   1.318       .  A
N1329      C1330   1.352       .  A
C1330      C1515   1.492       .  S
N1332      N1338   1.319       .  A
N1332      N1333   1.323       .  A
N1332     Mn1362   2.219       .  S
N1333      C1341   1.353       .  A
N1334      N1335   1.323       .  A
N1334      N1336   1.319       .  A
N1334     Mn1340   2.229       .  S
N1335      C1342   1.355       .  A
N1336      N1337   1.320       .  A
N1336     Mn1362   2.198       .  S
N1337      C1342   1.352       .  A
N1338      N1339   1.320       .  A
N1338     Mn1340   2.201       .  S
N1339      C1341   1.352       .  A
C1341      C1483   1.483       .  S
C1342      C1368   1.477       .  S
N1343      N1344   1.320       .  A
N1343      N1349   1.316       .  A
N1343     Mn1351   2.200       .  S
N1344      C1352   1.356       .  A
N1345      N1347   1.318       .  A
N1345      N1346   1.325       .  A
N1345     Mn1363   2.236       .  S
N1346      C1353   1.359       .  A
N1347      N1348   1.314       .  A
N1347     Mn1351   2.160       .  S
N1348      C1353   1.340       .  A
N1349      N1350   1.316       .  A
N1349     Mn1363   2.180       .  S
N1350      C1352   1.346       .  A
Mn1351     N1958   2.191       .  S
Mn1351    Cl2000   2.534   1_655  S
C1352      C1496   1.490       .  S
C1353      C1400   1.466       .  S
N1354      N1355   1.325       .  A
N1354     Mn1362   2.232       .  S
N1356      N1357   1.325       .  A
N1356      N1358   1.318       .  A
N1357      C1366   1.357       .  A
N1358      N1359   1.321       .  A
N1358     Mn1998   2.209       .  S
N1359      C1366   1.352       .  A
N1360      N1361   1.326       .  A
N1360     Mn1363   2.212       .  S
N1361      C2001   1.354       .  A
Mn1362     N1994   2.209   1_545  S
Mn1363    Cl2000   2.561   1_655  S
Cl1364    Mn1987   2.534   1_445  S
Cl1364    Mn1999   2.561   1_445  S
C1365      N1997   1.354   1_545  A
C1366      C1387   1.486       .  S
C1367      C1368   1.387       .  A
C1367      C1372   1.407       .  A
C1367      H1374   1.086       .  S
C1368      C1369   1.400       .  A
C1369      C1376   1.514       .  S
C1369      C1370   1.406       .  A
C1370      C1371   1.432       .  A
C1370      H1375   1.076       .  S
C1371      C1372   1.460       .  A
C1372      C1373   1.526       .  S
C1373      F1377   1.388       .  S
C1373      F1378   1.354       .  S
C1373      F1379   1.377       .  S
C1376      F1380   1.383       .  S
C1376      F1381   1.370       .  S
C1376      F1382   1.384       .  S
C1383      C1384   1.433       .  A
C1383      C1388   1.405       .  A
C1383      H1390   1.070       .  S
C1384      C1385   1.454       .  A
C1385      C1392   1.523       .  S
C1385      C1386   1.419       .  A
C1386      C1387   1.394       .  A
C1386      H1391   1.085       .  S
C1387      C1388   1.402       .  A
C1388      C1389   1.523       .  S
C1389      F1393   1.384       .  S
C1389      F1394   1.383       .  S
C1389      F2031   1.383       .  S
C1392      F1396   1.385       .  S
C1392      F1397   1.363       .  S
C1392      F1398   1.384       .  S
F1395      C2025   1.383       .  S
C1399      C1400   1.387       .  A
C1399      C1404   1.412       .  A
C1399      H1406   1.083       .  S
C1400      C1401   1.404       .  A
C1401      C1408   1.521       .  S
C1401      C1402   1.407       .  A
C1402      C1403   1.422       .  A
C1402      H1407   1.070       .  S
C1403      C1404   1.453       .  A
C1404      C1405   1.525       .  S
C1405      F1409   1.385       .  S
C1405      F1410   1.374       .  S
C1405      F1411   1.380       .  S
C1408      F1412   1.383       .  S
C1408      F1413   1.383       .  S
C1408      F1414   1.385       .  S
C1415      C1416   1.390       .  A
C1415      C1420   1.400       .  A
C1415      H1422   1.086       .  S
C1416      C1417   1.420       .  A
C1417      C1424   1.520       .  S
C1417      C1418   1.411       .  A
C1418      C1419   1.414       .  A
C1418      H1423   1.073       .  S
C1419      C1420   1.457       .  A
C1420      C1421   1.533       .  S
C1421      F1425   1.387       .  S
C1421      F1426   1.362       .  S
C1421      F1427   1.382       .  S
C1424      F1428   1.383       .  S
C1424      F1429   1.384       .  S
C1424      F1430   1.385       .  S
C1431      C1432   1.425       .  A
C1431      C1436   1.408       .  A
C1431      H1438   1.068       .  S
C1432      C1433   1.456       .  A
C1433      C1440   1.533       .  S
C1433      C1434   1.407       .  A
C1434      C1435   1.390       .  A
C1434      H1439   1.083       .  S
C1435      C1436   1.411       .  A
C1436      C1437   1.521       .  S
C1437      F1441   1.385       .  S
C1437      F1442   1.382       .  S
C1437      F1443   1.384       .  S
C1440      F1444   1.379       .  S
C1440      F1445   1.371       .  S
C1440      F1446   1.386       .  S
C1447      C1448   1.417       .  A
C1447      C1452   1.402       .  A
C1447      H1454   1.065       .  S
C1448      C1449   1.450       .  A
C1449      C1456   1.529       .  S
C1449      C1450   1.412       .  A
C1450      C1451   1.397       .  A
C1450      H1455   1.084       .  S
C1451      C1452   1.411       .  A
C1452      C1453   1.523       .  S
C1453      F1457   1.385       .  S
C1453      F1458   1.384       .  S
C1453      F1459   1.383       .  S
C1456      F1460   1.372       .  S
C1456      F1461   1.380       .  S
C1456      F1462   1.386       .  S
C1463      C1464   1.414       .  A
C1463      C1468   1.413       .  A
C1463      H1470   1.074       .  S
C1464      C1465   1.435       .  A
C1465      C1472   1.542       .  S
C1465      C1466   1.397       .  A
C1466      C1467   1.416       .  A
C1466      H1471   1.069       .  S
C1467      C1468   1.453       .  A
C1468      C1469   1.538       .  S
C1469      F1473   1.387       .  S
C1469      F1474   1.381       .  S
C1469      F1475   1.367       .  S
C1472      F1476   1.380       .  S
C1472      F1477   1.373       .  S
C1472      F1478   1.386       .  S
C1479      C1480   1.436       .  A
C1479      C1484   1.406       .  A
C1479      H1486   1.072       .  S
C1480      C1481   1.460       .  A
C1481      C1488   1.531       .  S
C1481      C1482   1.416       .  A
C1482      C1483   1.393       .  A
C1482      H1487   1.086       .  S
C1483      C1484   1.398       .  A
C1484      C1485   1.519       .  S
C1485      F1489   1.383       .  S
C1485      F1490   1.382       .  S
C1485      F1491   1.384       .  S
C1488      F1492   1.384       .  S
C1488      F1493   1.373       .  S
C1488      F1494   1.387       .  S
C1495      C1496   1.391       .  A
C1495      C1500   1.405       .  A
C1495      H1502   1.086       .  S
C1496      C1497   1.413       .  A
C1497      C1504   1.524       .  S
C1497      C1498   1.406       .  A
C1498      C1499   1.417       .  A
C1498      H1503   1.056       .  S
C1499      C1500   1.464       .  A
C1500      C1501   1.536       .  S
C1501      F1505   1.388       .  S
C1501      F1506   1.380       .  S
C1501      F1507   1.360       .  S
C1504      F1508   1.383       .  S
C1504      F1509   1.384       .  S
C1504      F1510   1.384       .  S
C1511      C1512   1.420       .  A
C1511      C1516   1.399       .  A
C1511      H1518   1.074       .  S
C1512      C1513   1.452       .  A
C1513      C1520   1.527       .  S
C1513      C1514   1.410       .  A
C1514      C1515   1.396       .  A
C1514      H1519   1.081       .  S
C1515      C1516   1.412       .  A
C1516      C1517   1.515       .  S
C1517      F1521   1.385       .  S
C1517      F1522   1.383       .  S
C1517      F1523   1.373       .  S
C1520      F1524   1.376       .  S
C1520      F1525   1.379       .  S
C1520      F1526   1.385       .  S
C1527      C1528   1.402       .  A
C1527      C1532   1.413       .  A
C1527      H1534   1.081       .  S
C1528      C1847   1.404       .  A
C1529      C1536   1.517       .  S
C1529      C1846   1.404   1_554  A
C1529      C1530   1.400       .  A
C1530      C1849   1.419   1_554  A
C1530      H1535   1.074       .  S
C1531      C1591   1.579       .  S
C1531      C1848   1.419       .  A
C1531      C1532   1.444       .  A
C1532      C1533   1.527       .  S
C1533      F1537   1.385       .  S
C1533      F1538   1.380       .  S
C1533      F1539   1.366       .  S
C1536      F1540   1.383       .  S
C1536      F1541   1.383       .  S
C1536      F1542   1.374       .  S
C1543      C1544   1.431       .  A
C1543      C1548   1.403       .  A
C1543      H1550   1.080       .  S
C1544      C1591   1.572       .  S
C1544      C1545   1.458       .  A
C1545      C1552   1.535       .  S
C1545      C1546   1.409       .  A
C1546      C1547   1.392       .  A
C1546      H1551   1.086       .  S
C1547      C1548   1.398       .  A
C1548      C1549   1.518       .  S
C1549      F1553   1.384       .  S
C1549      F1872   1.383       .  S
C1549      F1555   1.383       .  S
C1552      F1874   1.387       .  S
C1552      F1557   1.363       .  S
C1552      F1558   1.382       .  S
F1554      C1867   1.383       .  S
F1556      C1870   1.387       .  S
C1559      C1560   1.430       .  A
C1559      C1564   1.406       .  A
C1559      H1566   1.077       .  S
C1560      C1591   1.599       .  S
C1560      C1561   1.454       .  A
C1561      C1568   1.533       .  S
C1561      C1562   1.412       .  A
C1562      C1563   1.397       .  A
C1562      H1567   1.085       .  S
C1563      C1564   1.416       .  A
C1564      C1565   1.523       .  S
C1565      F1569   1.385       .  S
C1565      F1570   1.384       .  S
C1565      F1571   1.383       .  S
C1568      F1890   1.383       .  S
C1568      F1573   1.366       .  S
C1568      F1574   1.386       .  S
F1572      C1886   1.383       .  S
C1575      C1576   1.421       .  A
C1575      C1580   1.402       .  A
C1575      H1582   1.063       .  S
C1576      C1577   1.454       .  A
C1577      C1584   1.542       .  S
C1577      C1578   1.413       .  A
C1578      C1579   1.412       .  A
C1578      H1583   1.080       .  S
C1579      C1580   1.442       .  A
C1580      C1581   1.543       .  S
C1581      F1585   1.387       .  S
C1581      F1586   1.374       .  S
C1581      F1587   1.376       .  S
C1584      F1588   1.369       .  S
C1584      F1589   1.373       .  S
C1584      F1590   1.385       .  S
C1591      C1894   1.618       .  S
C1592      C1798   1.622       .  S
C1592      C1817   1.621       .  S
C1592      C1830   1.580       .  S
C1592      C1897   1.582       .  S
C1593      C1737   1.597       .  S
C1593      C1750   1.583       .  S
C1593      C1766   1.593       .  S
C1593      C1782   1.566       .  S
C1594      C1689   1.616       .  S
C1594      C1702   1.613       .  S
C1594      C1721   1.582       .  S
C1594      C1785   1.593       .  S
N1595      N1596   1.320       .  A
N1595      N1601   1.316       .  A
N1595     Mn1624   2.216       .  S
N1596      C1603   1.359       .  A
N1597      N1599   1.314       .  A
N1597      N1598   1.319       .  A
N1597     Mn1613   2.209       .  S
N1598      C1604   1.355       .  A
N1599      N1600   1.316       .  A
N1599     Mn1624   2.170       .  S
N1600      C1604   1.348       .  A
N1601      N1602   1.318       .  A
N1601     Mn1613   2.181       .  S
N1602      C1603   1.346       .  A
C1603      C1734   1.490       .  S
C1604      C1846   1.480       .  S
N1605      N1606   1.326       .  A
N1607      N1608   1.323       .  A
N1607      N1609   1.313       .  A
N1608      C1615   1.359       .  A
N1609      N1610   1.317       .  A
N1609     Mn2271   2.187   1_545  S
N1610      C1615   1.350       .  A
N1611      N1612   1.325       .  A
N1612      C1614   1.352       .  A
C1614      C1649   1.488       .  S
C1615      C1881   1.496       .  S
N1616      N1617   1.320       .  A
N1616      N1622   1.313       .  A
N1616     Mn2260   2.212       .  S
N1617      C1625   1.357       .  A
N1618      N1619   1.328       .  A
N1618     Mn1636   2.240       .  S
N1619      C2262   1.359       .  A
N1620      N1621   1.323       .  A
N1620     Mn1624   2.204       .  S
N1622      N1623   1.319       .  A
N1623      C1625   1.351       .  A
Mn1624     N2252   2.212   1_545  S
C1625      C1753   1.486       .  S
C1626      N2255   1.359   1_545  A
C1626      C1683   1.486       .  S
N1627      N1628   1.321       .  A
N1627      N1633   1.318       .  A
N1627     Mn1635   2.220       .  S
N1628      C1638   1.354       .  A
N1629      N1630   1.319       .  A
N1629      N1631   1.317       .  A
N1629     Mn1636   2.207       .  S
N1630      C1639   1.350       .  A
N1631      N1632   1.320       .  A
N1631     Mn1635   2.195       .  S
N1632      C1639   1.352       .  A
N1633      N1634   1.319       .  A
N1633     Mn1636   2.191       .  S
N1634      C1638   1.351       .  A
Mn1635     N2245   2.187       .  S
Mn1635    Cl2273   2.545       .  S
Mn1636    Cl2273   2.549       .  S
Cl1637    Mn2271   2.545   1_545  S
Cl1637    Mn2272   2.549   1_545  S
C1638      C1769   1.483       .  S
C1639      C1865   1.468       .  S
N1640      N1641   1.318       .  A
N1640      N1646   1.311       .  A
N1640     Mn2305   2.191   1_545  S
N1641      C1648   1.355       .  A
N1642      N1643   1.329       .  A
N1642     Mn1658   2.257       .  S
N1643      C1649   1.362       .  A
N1644      N1645   1.322       .  A
N1644     Mn1669   2.197       .  S
N1646      N1647   1.318       .  A
N1647      C1648   1.352       .  A
C1648      C1833   1.492       .  S
N1650      N1656   1.319       .  A
N1650      N1651   1.323       .  A
N1650     Mn1680   2.219       .  S
N1651      C1659   1.353       .  A
N1652      N1653   1.323       .  A
N1652      N1654   1.319       .  A
N1652     Mn1658   2.229       .  S
N1653      C1660   1.355       .  A
N1654      N1655   1.320       .  A
N1654     Mn1680   2.198       .  S
N1655      C1660   1.352       .  A
N1656      N1657   1.320       .  A
N1656     Mn1658   2.201       .  S
N1657      C1659   1.352       .  A
C1659      C1801   1.483       .  S
C1660      C1686   1.477       .  S
N1661      N1662   1.320       .  A
N1661      N1667   1.316       .  A
N1661     Mn1669   2.200       .  S
N1662      C1670   1.356       .  A
N1663      N1665   1.318       .  A
N1663      N1664   1.325       .  A
N1663     Mn1681   2.236       .  S
N1664      C1671   1.359       .  A
N1665      N1666   1.314       .  A
N1665     Mn1669   2.160       .  S
N1666      C1671   1.340       .  A
N1667      N1668   1.316       .  A
N1667     Mn1681   2.180       .  S
N1668      C1670   1.346       .  A
Mn1669     N2276   2.191       .  S
Mn1669    Cl2318   2.534   1_655  S
C1670      C1814   1.490       .  S
C1671      C1718   1.466       .  S
N1672      N1673   1.325       .  A
N1672     Mn1680   2.232       .  S
N1674      N1675   1.325       .  A
N1674      N1676   1.318       .  A
N1675      C1684   1.357       .  A
N1676      N1677   1.321       .  A
N1676     Mn2316   2.209       .  S
N1677      C1684   1.352       .  A
N1678      N1679   1.326       .  A
N1678     Mn1681   2.212       .  S
N1679      C2319   1.354       .  A
Mn1680     N2312   2.209   1_545  S
Mn1681    Cl2318   2.561   1_655  S
Cl1682    Mn2305   2.534   1_445  S
Cl1682    Mn2317   2.561   1_445  S
C1683      N2315   1.354   1_545  A
C1684      C1705   1.486       .  S
C1685      C1686   1.387       .  A
C1685      C1690   1.407       .  A
C1685      H1692   1.086       .  S
C1686      C1687   1.400       .  A
C1687      C1694   1.514       .  S
C1687      C1688   1.406       .  A
C1688      C1689   1.432       .  A
C1688      H1693   1.076       .  S
C1689      C1690   1.460       .  A
C1690      C1691   1.526       .  S
C1691      F1695   1.388       .  S
C1691      F1696   1.354       .  S
C1691      F1697   1.377       .  S
C1694      F1698   1.383       .  S
C1694      F1699   1.370       .  S
C1694      F1700   1.384       .  S
C1701      C1702   1.433       .  A
C1701      C1706   1.405       .  A
C1701      H1708   1.070       .  S
C1702      C1703   1.454       .  A
C1703      C1710   1.523       .  S
C1703      C1704   1.419       .  A
C1704      C1705   1.394       .  A
C1704      H1709   1.085       .  S
C1705      C1706   1.402       .  A
C1706      C1707   1.523       .  S
C1707      F1711   1.384       .  S
C1707      F1712   1.383       .  S
C1707      F2349   1.383       .  S
C1710      F1714   1.385       .  S
C1710      F1715   1.363       .  S
C1710      F1716   1.384       .  S
F1713      C2343   1.383       .  S
C1717      C1718   1.387       .  A
C1717      C1722   1.412       .  A
C1717      H1724   1.083       .  S
C1718      C1719   1.404       .  A
C1719      C1726   1.521       .  S
C1719      C1720   1.407       .  A
C1720      C1721   1.422       .  A
C1720      H1725   1.070       .  S
C1721      C1722   1.453       .  A
C1722      C1723   1.525       .  S
C1723      F1727   1.385       .  S
C1723      F1728   1.374       .  S
C1723      F1729   1.380       .  S
C1726      F1730   1.383       .  S
C1726      F1731   1.383       .  S
C1726      F1732   1.385       .  S
C1733      C1734   1.390       .  A
C1733      C1738   1.400       .  A
C1733      H1740   1.086       .  S
C1734      C1735   1.420       .  A
C1735      C1742   1.520       .  S
C1735      C1736   1.411       .  A
C1736      C1737   1.414       .  A
C1736      H1741   1.073       .  S
C1737      C1738   1.457       .  A
C1738      C1739   1.533       .  S
C1739      F1743   1.387       .  S
C1739      F1744   1.362       .  S
C1739      F1745   1.382       .  S
C1742      F1746   1.383       .  S
C1742      F1747   1.384       .  S
C1742      F1748   1.385       .  S
C1749      C1750   1.425       .  A
C1749      C1754   1.408       .  A
C1749      H1756   1.068       .  S
C1750      C1751   1.456       .  A
C1751      C1758   1.533       .  S
C1751      C1752   1.407       .  A
C1752      C1753   1.390       .  A
C1752      H1757   1.083       .  S
C1753      C1754   1.411       .  A
C1754      C1755   1.521       .  S
C1755      F1759   1.385       .  S
C1755      F1760   1.382       .  S
C1755      F1761   1.384       .  S
C1758      F1762   1.379       .  S
C1758      F1763   1.371       .  S
C1758      F1764   1.386       .  S
C1765      C1766   1.417       .  A
C1765      C1770   1.402       .  A
C1765      H1772   1.065       .  S
C1766      C1767   1.450       .  A
C1767      C1774   1.529       .  S
C1767      C1768   1.412       .  A
C1768      C1769   1.397       .  A
C1768      H1773   1.084       .  S
C1769      C1770   1.411       .  A
C1770      C1771   1.523       .  S
C1771      F1775   1.385       .  S
C1771      F1776   1.384       .  S
C1771      F1777   1.383       .  S
C1774      F1778   1.372       .  S
C1774      F1779   1.380       .  S
C1774      F1780   1.386       .  S
C1781      C1782   1.414       .  A
C1781      C1786   1.413       .  A
C1781      H1788   1.074       .  S
C1782      C1783   1.435       .  A
C1783      C1790   1.542       .  S
C1783      C1784   1.397       .  A
C1784      C1785   1.416       .  A
C1784      H1789   1.069       .  S
C1785      C1786   1.453       .  A
C1786      C1787   1.538       .  S
C1787      F1791   1.387       .  S
C1787      F1792   1.381       .  S
C1787      F1793   1.367       .  S
C1790      F1794   1.380       .  S
C1790      F1795   1.373       .  S
C1790      F1796   1.386       .  S
C1797      C1798   1.436       .  A
C1797      C1802   1.406       .  A
C1797      H1804   1.072       .  S
C1798      C1799   1.460       .  A
C1799      C1806   1.531       .  S
C1799      C1800   1.416       .  A
C1800      C1801   1.393       .  A
C1800      H1805   1.086       .  S
C1801      C1802   1.398       .  A
C1802      C1803   1.519       .  S
C1803      F1807   1.383       .  S
C1803      F1808   1.382       .  S
C1803      F1809   1.384       .  S
C1806      F1810   1.384       .  S
C1806      F1811   1.373       .  S
C1806      F1812   1.387       .  S
C1813      C1814   1.391       .  A
C1813      C1818   1.405       .  A
C1813      H1820   1.086       .  S
C1814      C1815   1.413       .  A
C1815      C1822   1.524       .  S
C1815      C1816   1.406       .  A
C1816      C1817   1.417       .  A
C1816      H1821   1.056       .  S
C1817      C1818   1.464       .  A
C1818      C1819   1.536       .  S
C1819      F1823   1.388       .  S
C1819      F1824   1.380       .  S
C1819      F1825   1.360       .  S
C1822      F1826   1.383       .  S
C1822      F1827   1.384       .  S
C1822      F1828   1.384       .  S
C1829      C1830   1.420       .  A
C1829      C1834   1.399       .  A
C1829      H1836   1.074       .  S
C1830      C1831   1.452       .  A
C1831      C1838   1.527       .  S
C1831      C1832   1.410       .  A
C1832      C1833   1.396       .  A
C1832      H1837   1.081       .  S
C1833      C1834   1.412       .  A
C1834      C1835   1.515       .  S
C1835      F1839   1.385       .  S
C1835      F1840   1.383       .  S
C1835      F1841   1.373       .  S
C1838      F1842   1.376       .  S
C1838      F1843   1.379       .  S
C1838      F1844   1.385       .  S
C1845      C1846   1.402       .  A
C1845      C1850   1.413       .  A
C1845      H1852   1.081       .  S
C1847      C1854   1.517       .  S
C1847      C1848   1.400       .  A
C1848      H1853   1.074       .  S
C1849      C1850   1.444       .  A
C1850      C1851   1.527       .  S
C1851      F1855   1.385       .  S
C1851      F1856   1.380       .  S
C1851      F1857   1.366       .  S
C1854      F1858   1.383       .  S
C1854      F1859   1.383       .  S
C1854      F1860   1.374       .  S
C1861      C1862   1.431   1_554  A
C1861      C1866   1.403   1_554  A
C1861      H1868   1.080       .  S
C1862      C1863   1.458       .  A
C1863      C1870   1.535       .  S
C1863      C1864   1.409       .  A
C1864      C1865   1.392       .  A
C1864      H1869   1.086       .  S
C1865      C1866   1.398       .  A
C1866      C1867   1.518   1_556  S
C1867      F1871   1.384       .  S
C1867      F1873   1.383   1_554  S
C1870      F1875   1.363       .  S
C1870      F1876   1.382       .  S
C1877      C1878   1.430       .  A
C1877      C1882   1.406       .  A
C1877      H1884   1.077       .  S
C1878      C1879   1.454       .  A
C1879      C1886   1.533       .  S
C1879      C1880   1.412       .  A
C1880      C1881   1.397       .  A
C1880      H1885   1.085       .  S
C1881      C1882   1.416       .  A
C1882      C1883   1.523       .  S
C1883      F1887   1.385   1_556  S
C1883      F1888   1.384   1_556  S
C1883      F1889   1.383       .  S
C1886      F1891   1.366       .  S
C1886      F1892   1.386       .  S
C1893      C1894   1.421       .  A
C1893      C1898   1.402       .  A
C1893      H1900   1.063       .  S
C1894      C1895   1.454       .  A
C1895      C1902   1.542       .  S
C1895      C1896   1.413       .  A
C1896      C1897   1.412       .  A
C1896      H1901   1.080       .  S
C1897      C1898   1.442       .  A
C1898      C1899   1.543       .  S
C1899      F1903   1.387       .  S
C1899      F1904   1.374       .  S
C1899      F1905   1.376       .  S
C1902      F1906   1.369       .  S
C1902      F1907   1.373       .  S
C1902      F1908   1.385       .  S
C1909      C2485   1.579       .  S
C1909      C2498   1.572       .  S
C1909      C2514   1.599       .  S
C1909      C2212   1.618   1_556  S
C1910      C2116   1.622       .  S
C1910      C2135   1.621       .  S
C1910      C2148   1.580       .  S
C1910      C2215   1.582       .  S
C1911      C2055   1.597       .  S
C1911      C2068   1.583       .  S
C1911      C2084   1.593       .  S
C1911      C2100   1.566       .  S
C1912      C2007   1.616       .  S
C1912      C2020   1.613       .  S
C1912      C2039   1.582       .  S
C1912      C2103   1.593       .  S
N1913      N1914   1.320       .  A
N1913      N1919   1.316       .  A
N1913     Mn1942   2.216       .  S
N1914      C1921   1.359       .  A
N1915      N1917   1.314       .  A
N1915      N1916   1.319       .  A
N1915     Mn1931   2.209       .  S
N1916      C1922   1.355       .  A
N1917      N1918   1.316       .  A
N1917     Mn1942   2.170       .  S
N1918      C1922   1.348       .  A
N1919      N1920   1.318       .  A
N1919     Mn1931   2.181       .  S
N1920      C1921   1.346       .  A
C1921      C2052   1.490       .  S
C1922      C2164   1.480       .  S
N1923      N1924   1.326       .  A
N1923     Mn2271   2.244   1_554  S
N1925      N1926   1.323       .  A
N1925      N1927   1.313       .  A
N1926      C1933   1.359       .  A
N1927      N1928   1.317       .  A
N1928      C1933   1.350       .  A
N1929      N1930   1.325       .  A
N1929     Mn2249   2.205   1_554  S
N1930      C1932   1.352       .  A
Mn1931     N2247   2.205       .  S
C1932      C1967   1.488       .  S
C1933      C2199   1.496       .  S
N1934      N1935   1.320       .  A
N1934      N1940   1.313       .  A
N1935      C1943   1.357       .  A
N1936      N1937   1.328       .  A
N1936     Mn1954   2.240       .  S
N1938      N1939   1.323       .  A
N1938     Mn1942   2.204       .  S
N1940      N1941   1.319       .  A
N1941      C1943   1.351       .  A
C1943      C2071   1.486       .  S
C1944      C2001   1.486       .  S
N1945      N1946   1.321       .  A
N1945      N1951   1.318       .  A
N1945     Mn1953   2.220       .  S
N1946      C1956   1.354       .  A
N1947      N1948   1.319       .  A
N1947      N1949   1.317       .  A
N1947     Mn1954   2.207       .  S
N1948      C1957   1.350       .  A
N1949      N1950   1.320       .  A
N1949     Mn1953   2.195       .  S
N1950      C1957   1.352       .  A
N1951      N1952   1.319       .  A
N1951     Mn1954   2.191       .  S
N1952      C1956   1.351       .  A
Mn1953     N2241   2.244       .  S
C1956      C2087   1.483       .  S
C1957      C2183   1.468       .  S
N1958      N1959   1.318       .  A
N1958      N1964   1.311       .  A
N1959      C1966   1.355       .  A
N1960      N1961   1.329       .  A
N1960     Mn1976   2.257       .  S
N1961      C1967   1.362       .  A
N1962      N1963   1.322       .  A
N1962     Mn1987   2.197       .  S
N1964      N1965   1.318       .  A
N1965      C1966   1.352       .  A
C1966      C2151   1.492       .  S
N1968      N1974   1.319       .  A
N1968      N1969   1.323       .  A
N1968     Mn1998   2.219       .  S
N1969      C1977   1.353       .  A
N1970      N1971   1.323       .  A
N1970      N1972   1.319       .  A
N1970     Mn1976   2.229       .  S
N1971      C1978   1.355       .  A
N1972      N1973   1.320       .  A
N1972     Mn1998   2.198       .  S
N1973      C1978   1.352       .  A
N1974      N1975   1.320       .  A
N1974     Mn1976   2.201       .  S
N1975      C1977   1.352       .  A
C1977      C2119   1.483       .  S
C1978      C2004   1.477       .  S
N1979      N1980   1.320       .  A
N1979      N1985   1.316       .  A
N1979     Mn1987   2.200       .  S
N1980      C1988   1.356       .  A
N1981      N1983   1.318       .  A
N1981      N1982   1.325       .  A
N1981     Mn1999   2.236       .  S
N1982      C1989   1.359       .  A
N1983      N1984   1.314       .  A
N1983     Mn1987   2.160       .  S
N1984      C1989   1.340       .  A
N1985      N1986   1.316       .  A
N1985     Mn1999   2.180       .  S
N1986      C1988   1.346       .  A
C1988      C2132   1.490       .  S
C1989      C2036   1.466       .  S
N1990      N1991   1.325       .  A
N1990     Mn1998   2.232       .  S
N1992      N1993   1.325       .  A
N1992      N1994   1.318       .  A
N1993      C2002   1.357       .  A
N1994      N1995   1.321       .  A
N1995      C2002   1.352       .  A
N1996      N1997   1.326       .  A
N1996     Mn1999   2.212       .  S
C2002      C2023   1.486       .  S
C2003      C2004   1.387       .  A
C2003      C2008   1.407       .  A
C2003      H2010   1.086       .  S
C2004      C2005   1.400       .  A
C2005      C2012   1.514       .  S
C2005      C2006   1.406       .  A
C2006      C2007   1.432       .  A
C2006      H2011   1.076       .  S
C2007      C2008   1.460       .  A
C2008      C2009   1.526       .  S
C2009      F2013   1.388       .  S
C2009      F2014   1.354       .  S
C2009      F2015   1.377       .  S
C2012      F2016   1.383       .  S
C2012      F2017   1.370       .  S
C2012      F2018   1.384       .  S
C2019      C2020   1.433       .  A
C2019      C2024   1.405       .  A
C2019      H2026   1.070       .  S
C2020      C2021   1.454       .  A
C2021      C2028   1.523       .  S
C2021      C2022   1.419       .  A
C2022      C2023   1.394       .  A
C2022      H2027   1.085       .  S
C2023      C2024   1.402       .  A
C2024      C2025   1.523       .  S
C2025      F2029   1.384       .  S
C2025      F2030   1.383       .  S
C2028      F2032   1.385       .  S
C2028      F2033   1.363       .  S
C2028      F2034   1.384       .  S
C2035      C2036   1.387       .  A
C2035      C2040   1.412       .  A
C2035      H2042   1.083       .  S
C2036      C2037   1.404       .  A
C2037      C2044   1.521       .  S
C2037      C2038   1.407       .  A
C2038      C2039   1.422       .  A
C2038      H2043   1.070       .  S
C2039      C2040   1.453       .  A
C2040      C2041   1.525       .  S
C2041      F2045   1.385       .  S
C2041      F2046   1.374       .  S
C2041      F2047   1.380       .  S
C2044      F2048   1.383       .  S
C2044      F2049   1.383       .  S
C2044      F2050   1.385       .  S
C2051      C2052   1.390       .  A
C2051      C2056   1.400       .  A
C2051      H2058   1.086       .  S
C2052      C2053   1.420       .  A
C2053      C2060   1.520       .  S
C2053      C2054   1.411       .  A
C2054      C2055   1.414       .  A
C2054      H2059   1.073       .  S
C2055      C2056   1.457       .  A
C2056      C2057   1.533       .  S
C2057      F2061   1.387       .  S
C2057      F2062   1.362       .  S
C2057      F2063   1.382       .  S
C2060      F2064   1.383       .  S
C2060      F2065   1.384       .  S
C2060      F2066   1.385       .  S
C2067      C2068   1.425       .  A
C2067      C2072   1.408       .  A
C2067      H2074   1.068       .  S
C2068      C2069   1.456       .  A
C2069      C2076   1.533       .  S
C2069      C2070   1.407       .  A
C2070      C2071   1.390       .  A
C2070      H2075   1.083       .  S
C2071      C2072   1.411       .  A
C2072      C2073   1.521       .  S
C2073      F2077   1.385       .  S
C2073      F2078   1.382       .  S
C2073      F2079   1.384       .  S
C2076      F2080   1.379       .  S
C2076      F2081   1.371       .  S
C2076      F2082   1.386       .  S
C2083      C2084   1.417       .  A
C2083      C2088   1.402       .  A
C2083      H2090   1.065       .  S
C2084      C2085   1.450       .  A
C2085      C2092   1.529       .  S
C2085      C2086   1.412       .  A
C2086      C2087   1.397       .  A
C2086      H2091   1.084       .  S
C2087      C2088   1.411       .  A
C2088      C2089   1.523       .  S
C2089      F2093   1.385       .  S
C2089      F2094   1.384       .  S
C2089      F2095   1.383       .  S
C2092      F2096   1.372       .  S
C2092      F2097   1.380       .  S
C2092      F2098   1.386       .  S
C2099      C2100   1.414       .  A
C2099      C2104   1.413       .  A
C2099      H2106   1.074       .  S
C2100      C2101   1.435       .  A
C2101      C2108   1.542       .  S
C2101      C2102   1.397       .  A
C2102      C2103   1.416       .  A
C2102      H2107   1.069       .  S
C2103      C2104   1.453       .  A
C2104      C2105   1.538       .  S
C2105      F2109   1.387       .  S
C2105      F2110   1.381       .  S
C2105      F2111   1.367       .  S
C2108      F2112   1.380       .  S
C2108      F2113   1.373       .  S
C2108      F2114   1.386       .  S
C2115      C2116   1.436       .  A
C2115      C2120   1.406       .  A
C2115      H2122   1.072       .  S
C2116      C2117   1.460       .  A
C2117      C2124   1.531       .  S
C2117      C2118   1.416       .  A
C2118      C2119   1.393       .  A
C2118      H2123   1.086       .  S
C2119      C2120   1.398       .  A
C2120      C2121   1.519       .  S
C2121      F2125   1.383       .  S
C2121      F2126   1.382       .  S
C2121      F2127   1.384       .  S
C2124      F2128   1.384       .  S
C2124      F2129   1.373       .  S
C2124      F2130   1.387       .  S
C2131      C2132   1.391       .  A
C2131      C2136   1.405       .  A
C2131      H2138   1.086       .  S
C2132      C2133   1.413       .  A
C2133      C2140   1.524       .  S
C2133      C2134   1.406       .  A
C2134      C2135   1.417       .  A
C2134      H2139   1.056       .  S
C2135      C2136   1.464       .  A
C2136      C2137   1.536       .  S
C2137      F2141   1.388       .  S
C2137      F2142   1.380       .  S
C2137      F2143   1.360       .  S
C2140      F2144   1.383       .  S
C2140      F2145   1.384       .  S
C2140      F2146   1.384       .  S
C2147      C2148   1.420       .  A
C2147      C2152   1.399       .  A
C2147      H2154   1.074       .  S
C2148      C2149   1.452       .  A
C2149      C2156   1.527       .  S
C2149      C2150   1.410       .  A
C2150      C2151   1.396       .  A
C2150      H2155   1.081       .  S
C2151      C2152   1.412       .  A
C2152      C2153   1.515       .  S
C2153      F2157   1.385       .  S
C2153      F2158   1.383       .  S
C2153      F2159   1.373       .  S
C2156      F2160   1.376       .  S
C2156      F2161   1.379       .  S
C2156      F2162   1.385       .  S
C2163      C2164   1.402       .  A
C2163      C2168   1.413       .  A
C2163      H2170   1.081       .  S
C2164      C2483   1.404       .  A
C2165      C2172   1.517       .  S
C2165      C2482   1.404   1_554  A
C2165      C2166   1.400       .  A
C2166      C2485   1.419   1_554  A
C2166      H2171   1.074       .  S
C2167      C2227   1.579       .  S
C2167      C2484   1.419       .  A
C2167      C2168   1.444       .  A
C2168      C2169   1.527       .  S
C2169      F2173   1.385       .  S
C2169      F2174   1.380       .  S
C2169      F2175   1.366       .  S
C2172      F2176   1.383       .  S
C2172      F2177   1.383       .  S
C2172      F2178   1.374       .  S
C2179      C2180   1.431       .  A
C2179      C2184   1.403       .  A
C2179      H2186   1.080       .  S
C2180      C2227   1.572       .  S
C2180      C2181   1.458       .  A
C2181      C2188   1.535       .  S
C2181      C2182   1.409       .  A
C2182      C2183   1.392       .  A
C2182      H2187   1.086       .  S
C2183      C2184   1.398       .  A
C2184      C2185   1.518       .  S
C2185      F2189   1.384       .  S
C2185      F2508   1.383       .  S
C2185      F2191   1.383       .  S
C2188      F2510   1.387       .  S
C2188      F2193   1.363       .  S
C2188      F2194   1.382       .  S
F2190      C2503   1.383       .  S
F2192      C2506   1.387       .  S
C2195      C2196   1.430       .  A
C2195      C2200   1.406       .  A
C2195      H2202   1.077       .  S
C2196      C2227   1.599       .  S
C2196      C2197   1.454       .  A
C2197      C2204   1.533       .  S
C2197      C2198   1.412       .  A
C2198      C2199   1.397       .  A
C2198      H2203   1.085       .  S
C2199      C2200   1.416       .  A
C2200      C2201   1.523       .  S
C2201      F2205   1.385       .  S
C2201      F2206   1.384       .  S
C2201      F2207   1.383       .  S
C2204      F2526   1.383       .  S
C2204      F2209   1.366       .  S
C2204      F2210   1.386       .  S
F2208      C2522   1.383       .  S
C2211      C2212   1.421       .  A
C2211      C2216   1.402       .  A
C2211      H2218   1.063       .  S
C2212      C2213   1.454       .  A
C2213      C2220   1.542       .  S
C2213      C2214   1.413       .  A
C2214      C2215   1.412       .  A
C2214      H2219   1.080       .  S
C2215      C2216   1.442       .  A
C2216      C2217   1.543       .  S
C2217      F2221   1.387       .  S
C2217      F2222   1.374       .  S
C2217      F2223   1.376       .  S
C2220      F2224   1.369       .  S
C2220      F2225   1.373       .  S
C2220      F2226   1.385       .  S
C2227      C2530   1.618       .  S
C2228      C2434   1.622       .  S
C2228      C2453   1.621       .  S
C2228      C2466   1.580       .  S
C2228      C2533   1.582       .  S
C2229      C2373   1.597       .  S
C2229      C2386   1.583       .  S
C2229      C2402   1.593       .  S
C2229      C2418   1.566       .  S
C2230      C2325   1.616       .  S
C2230      C2338   1.613       .  S
C2230      C2357   1.582       .  S
C2230      C2421   1.593       .  S
N2231      N2232   1.320       .  A
N2231      N2237   1.316       .  A
N2231     Mn2260   2.216       .  S
N2232      C2239   1.359       .  A
N2233      N2235   1.314       .  A
N2233      N2234   1.319       .  A
N2233     Mn2249   2.209       .  S
N2234      C2240   1.355       .  A
N2235      N2236   1.316       .  A
N2235     Mn2260   2.170       .  S
N2236      C2240   1.348       .  A
N2237      N2238   1.318       .  A
N2237     Mn2249   2.181       .  S
N2238      C2239   1.346       .  A
C2239      C2370   1.490       .  S
C2240      C2482   1.480       .  S
N2241      N2242   1.326       .  A
N2243      N2244   1.323       .  A
N2243      N2245   1.313       .  A
N2244      C2251   1.359       .  A
N2245      N2246   1.317       .  A
N2246      C2251   1.350       .  A
N2247      N2248   1.325       .  A
N2248      C2250   1.352       .  A
C2250      C2285   1.488       .  S
C2251      C2517   1.496       .  S
N2252      N2253   1.320       .  A
N2252      N2258   1.313       .  A
N2253      C2261   1.357       .  A
N2254      N2255   1.328       .  A
N2254     Mn2272   2.240       .  S
N2256      N2257   1.323       .  A
N2256     Mn2260   2.204       .  S
N2258      N2259   1.319       .  A
N2259      C2261   1.351       .  A
C2261      C2389   1.486       .  S
C2262      C2319   1.486       .  S
N2263      N2264   1.321       .  A
N2263      N2269   1.318       .  A
N2263     Mn2271   2.220       .  S
N2264      C2274   1.354       .  A
N2265      N2266   1.319       .  A
N2265      N2267   1.317       .  A
N2265     Mn2272   2.207       .  S
N2266      C2275   1.350       .  A
N2267      N2268   1.320       .  A
N2267     Mn2271   2.195       .  S
N2268      C2275   1.352       .  A
N2269      N2270   1.319       .  A
N2269     Mn2272   2.191       .  S
N2270      C2274   1.351       .  A
C2274      C2405   1.483       .  S
C2275      C2501   1.468       .  S
N2276      N2277   1.318       .  A
N2276      N2282   1.311       .  A
N2277      C2284   1.355       .  A
N2278      N2279   1.329       .  A
N2278     Mn2294   2.257       .  S
N2279      C2285   1.362       .  A
N2280      N2281   1.322       .  A
N2280     Mn2305   2.197       .  S
N2282      N2283   1.318       .  A
N2283      C2284   1.352       .  A
C2284      C2469   1.492       .  S
N2286      N2292   1.319       .  A
N2286      N2287   1.323       .  A
N2286     Mn2316   2.219       .  S
N2287      C2295   1.353       .  A
N2288      N2289   1.323       .  A
N2288      N2290   1.319       .  A
N2288     Mn2294   2.229       .  S
N2289      C2296   1.355       .  A
N2290      N2291   1.320       .  A
N2290     Mn2316   2.198       .  S
N2291      C2296   1.352       .  A
N2292      N2293   1.320       .  A
N2292     Mn2294   2.201       .  S
N2293      C2295   1.352       .  A
C2295      C2437   1.483       .  S
C2296      C2322   1.477       .  S
N2297      N2298   1.320       .  A
N2297      N2303   1.316       .  A
N2297     Mn2305   2.200       .  S
N2298      C2306   1.356       .  A
N2299      N2301   1.318       .  A
N2299      N2300   1.325       .  A
N2299     Mn2317   2.236       .  S
N2300      C2307   1.359       .  A
N2301      N2302   1.314       .  A
N2301     Mn2305   2.160       .  S
N2302      C2307   1.340       .  A
N2303      N2304   1.316       .  A
N2303     Mn2317   2.180       .  S
N2304      C2306   1.346       .  A
C2306      C2450   1.490       .  S
C2307      C2354   1.466       .  S
N2308      N2309   1.325       .  A
N2308     Mn2316   2.232       .  S
N2310      N2311   1.325       .  A
N2310      N2312   1.318       .  A
N2311      C2320   1.357       .  A
N2312      N2313   1.321       .  A
N2313      C2320   1.352       .  A
N2314      N2315   1.326       .  A
N2314     Mn2317   2.212       .  S
C2320      C2341   1.486       .  S
C2321      C2322   1.387       .  A
C2321      C2326   1.407       .  A
C2321      H2328   1.086       .  S
C2322      C2323   1.400       .  A
C2323      C2330   1.514       .  S
C2323      C2324   1.406       .  A
C2324      C2325   1.432       .  A
C2324      H2329   1.076       .  S
C2325      C2326   1.460       .  A
C2326      C2327   1.526       .  S
C2327      F2331   1.388       .  S
C2327      F2332   1.354       .  S
C2327      F2333   1.377       .  S
C2330      F2334   1.383       .  S
C2330      F2335   1.370       .  S
C2330      F2336   1.384       .  S
C2337      C2338   1.433       .  A
C2337      C2342   1.405       .  A
C2337      H2344   1.070       .  S
C2338      C2339   1.454       .  A
C2339      C2346   1.523       .  S
C2339      C2340   1.419       .  A
C2340      C2341   1.394       .  A
C2340      H2345   1.085       .  S
C2341      C2342   1.402       .  A
C2342      C2343   1.523       .  S
C2343      F2347   1.384       .  S
C2343      F2348   1.383       .  S
C2346      F2350   1.385       .  S
C2346      F2351   1.363       .  S
C2346      F2352   1.384       .  S
C2353      C2354   1.387       .  A
C2353      C2358   1.412       .  A
C2353      H2360   1.083       .  S
C2354      C2355   1.404       .  A
C2355      C2362   1.521       .  S
C2355      C2356   1.407       .  A
C2356      C2357   1.422       .  A
C2356      H2361   1.070       .  S
C2357      C2358   1.453       .  A
C2358      C2359   1.525       .  S
C2359      F2363   1.385       .  S
C2359      F2364   1.374       .  S
C2359      F2365   1.380       .  S
C2362      F2366   1.383       .  S
C2362      F2367   1.383       .  S
C2362      F2368   1.385       .  S
C2369      C2370   1.390       .  A
C2369      C2374   1.400       .  A
C2369      H2376   1.086       .  S
C2370      C2371   1.420       .  A
C2371      C2378   1.520       .  S
C2371      C2372   1.411       .  A
C2372      C2373   1.414       .  A
C2372      H2377   1.073       .  S
C2373      C2374   1.457       .  A
C2374      C2375   1.533       .  S
C2375      F2379   1.387       .  S
C2375      F2380   1.362       .  S
C2375      F2381   1.382       .  S
C2378      F2382   1.383       .  S
C2378      F2383   1.384       .  S
C2378      F2384   1.385       .  S
C2385      C2386   1.425       .  A
C2385      C2390   1.408       .  A
C2385      H2392   1.068       .  S
C2386      C2387   1.456       .  A
C2387      C2394   1.533       .  S
C2387      C2388   1.407       .  A
C2388      C2389   1.390       .  A
C2388      H2393   1.083       .  S
C2389      C2390   1.411       .  A
C2390      C2391   1.521       .  S
C2391      F2395   1.385       .  S
C2391      F2396   1.382       .  S
C2391      F2397   1.384       .  S
C2394      F2398   1.379       .  S
C2394      F2399   1.371       .  S
C2394      F2400   1.386       .  S
C2401      C2402   1.417       .  A
C2401      C2406   1.402       .  A
C2401      H2408   1.065       .  S
C2402      C2403   1.450       .  A
C2403      C2410   1.529       .  S
C2403      C2404   1.412       .  A
C2404      C2405   1.397       .  A
C2404      H2409   1.084       .  S
C2405      C2406   1.411       .  A
C2406      C2407   1.523       .  S
C2407      F2411   1.385       .  S
C2407      F2412   1.384       .  S
C2407      F2413   1.383       .  S
C2410      F2414   1.372       .  S
C2410      F2415   1.380       .  S
C2410      F2416   1.386       .  S
C2417      C2418   1.414       .  A
C2417      C2422   1.413       .  A
C2417      H2424   1.074       .  S
C2418      C2419   1.435       .  A
C2419      C2426   1.542       .  S
C2419      C2420   1.397       .  A
C2420      C2421   1.416       .  A
C2420      H2425   1.069       .  S
C2421      C2422   1.453       .  A
C2422      C2423   1.538       .  S
C2423      F2427   1.387       .  S
C2423      F2428   1.381       .  S
C2423      F2429   1.367       .  S
C2426      F2430   1.380       .  S
C2426      F2431   1.373       .  S
C2426      F2432   1.386       .  S
C2433      C2434   1.436       .  A
C2433      C2438   1.406       .  A
C2433      H2440   1.072       .  S
C2434      C2435   1.460       .  A
C2435      C2442   1.531       .  S
C2435      C2436   1.416       .  A
C2436      C2437   1.393       .  A
C2436      H2441   1.086       .  S
C2437      C2438   1.398       .  A
C2438      C2439   1.519       .  S
C2439      F2443   1.383       .  S
C2439      F2444   1.382       .  S
C2439      F2445   1.384       .  S
C2442      F2446   1.384       .  S
C2442      F2447   1.373       .  S
C2442      F2448   1.387       .  S
C2449      C2450   1.391       .  A
C2449      C2454   1.405       .  A
C2449      H2456   1.086       .  S
C2450      C2451   1.413       .  A
C2451      C2458   1.524       .  S
C2451      C2452   1.406       .  A
C2452      C2453   1.417       .  A
C2452      H2457   1.056       .  S
C2453      C2454   1.464       .  A
C2454      C2455   1.536       .  S
C2455      F2459   1.388       .  S
C2455      F2460   1.380       .  S
C2455      F2461   1.360       .  S
C2458      F2462   1.383       .  S
C2458      F2463   1.384       .  S
C2458      F2464   1.384       .  S
C2465      C2466   1.420       .  A
C2465      C2470   1.399       .  A
C2465      H2472   1.074       .  S
C2466      C2467   1.452       .  A
C2467      C2474   1.527       .  S
C2467      C2468   1.410       .  A
C2468      C2469   1.396       .  A
C2468      H2473   1.081       .  S
C2469      C2470   1.412       .  A
C2470      C2471   1.515       .  S
C2471      F2475   1.385       .  S
C2471      F2476   1.383       .  S
C2471      F2477   1.373       .  S
C2474      F2478   1.376       .  S
C2474      F2479   1.379       .  S
C2474      F2480   1.385       .  S
C2481      C2482   1.402       .  A
C2481      C2486   1.413       .  A
C2481      H2488   1.081       .  S
C2483      C2490   1.517       .  S
C2483      C2484   1.400       .  A
C2484      H2489   1.074       .  S
C2485      C2486   1.444       .  A
C2486      C2487   1.527       .  S
C2487      F2491   1.385       .  S
C2487      F2492   1.380       .  S
C2487      F2493   1.366       .  S
C2490      F2494   1.383       .  S
C2490      F2495   1.383       .  S
C2490      F2496   1.374       .  S
C2497      C2498   1.431   1_554  A
C2497      C2502   1.403   1_554  A
C2497      H2504   1.080       .  S
C2498      C2499   1.458       .  A
C2499      C2506   1.535       .  S
C2499      C2500   1.409       .  A
C2500      C2501   1.392       .  A
C2500      H2505   1.086       .  S
C2501      C2502   1.398       .  A
C2502      C2503   1.518   1_556  S
C2503      F2507   1.384       .  S
C2503      F2509   1.383   1_554  S
C2506      F2511   1.363       .  S
C2506      F2512   1.382       .  S
C2513      C2514   1.430       .  A
C2513      C2518   1.406       .  A
C2513      H2520   1.077       .  S
C2514      C2515   1.454       .  A
C2515      C2522   1.533       .  S
C2515      C2516   1.412       .  A
C2516      C2517   1.397       .  A
C2516      H2521   1.085       .  S
C2517      C2518   1.416       .  A
C2518      C2519   1.523       .  S
C2519      F2523   1.385   1_556  S
C2519      F2524   1.384   1_556  S
C2519      F2525   1.383       .  S
C2522      F2527   1.366       .  S
C2522      F2528   1.386       .  S
C2529      C2530   1.421       .  A
C2529      C2534   1.402       .  A
C2529      H2536   1.063       .  S
C2530      C2531   1.454       .  A
C2531      C2538   1.542       .  S
C2531      C2532   1.413       .  A
C2532      C2533   1.412       .  A
C2532      H2537   1.080       .  S
C2533      C2534   1.442       .  A
C2534      C2535   1.543       .  S
C2535      F2539   1.387       .  S
C2535      F2540   1.374       .  S
C2535      F2541   1.376       .  S
C2538      F2542   1.369       .  S
C2538      F2543   1.373       .  S
C2538      F2544   1.385       .  S
