geometry optimzed in LAMMPS
_audit_creation_date              2020-11-30 
_audit_creation_method            'lammps2cif' 
_symmetry_space_group_name_H-M    'P1' 
_symmetry_Int_Tables_number       1 
_symmetry_cell_setting            triclinic 
loop_ 
_symmetry_equiv_pos_as_xyz 
  x,y,z 
_cell_length_a                    48.68890946051569 
_cell_length_b                    48.48526593955995 
_cell_length_c                    48.533436161571196 
_cell_angle_alpha                 90.3479289963138 
_cell_angle_beta                  90.34520513222915 
_cell_angle_gamma                 89.8696275030265 
loop_ 
_atom_site_label 
_atom_site_type_symbol 
_atom_site_fract_x 
_atom_site_fract_y 
_atom_site_fract_z 
_atom_site_charge 
O1          O  0.05052802  0.54061187  0.52120931    -0.73110
O2          O  0.06195153  0.45763532  0.50646101    -0.74090
O3          O  0.05910781  0.47099985  0.53119203    -0.62710
O4          O  0.04912541  0.50376744  0.45522146    -0.71120
O5          O  0.09181311  0.51945420  0.45983571    -0.70670
O6          O  0.09768601  0.49563961  0.53757831    -0.61930
O7          O  0.09941415  0.46954100  0.48409334    -0.74430
O8          O  0.09420313  0.54567258  0.51048126    -0.73210
Cu9        Cu  0.02650242  0.49929354  0.50521553     1.04560
Cu10       Cu  0.09552053  0.50780467  0.49819695     1.04330
C11         C  0.07253399  0.55513395  0.52077837     0.93090
C12         C  0.08310605  0.45077669  0.49128286     0.92230
C13         C  0.07999653  0.47894312  0.54708207     0.84370
C14         C  0.07154584  0.51282793  0.44457015     0.90640
O15         O  0.53257525  0.94583269  0.54174804    -0.73110
O16         O  0.55693528  0.94215648  0.46501799    -0.74090
O17         O  0.58285048  0.94645596  0.51473449    -0.62710
O18         O  0.50407449  0.94456862  0.49278062    -0.71120
O19         O  0.51100680  0.98322198  0.46890356    -0.70670
O20         O  0.58944312  0.98996845  0.50220617    -0.61930
O21         O  0.53403713  0.98057083  0.45572626    -0.74430
O22         O  0.52452851  0.99023582  0.53671350    -0.73210
Cu23       Cu  0.54394641  0.94502448  0.50361845     1.04560
Cu24       Cu  0.53919471  0.01494112  0.49597311     1.04330
C25         C  0.52347861  0.96825503  0.55104145     0.93090
C26         C  0.54975415  0.96002882  0.44762100     0.92230
C27         C  0.59897445  0.96651745  0.51033544     0.84370
C28         C  0.49420226  0.96354847  0.47768301     0.90640
O29         O  0.99059725  0.54444565  0.48759161    -0.73110
O30         O  0.98211169  0.47143419  0.51801053    -0.74090
O31         O  0.99200008  0.52191260  0.53938156    -0.62710
O32         O  0.98470052  0.49403440  0.46308118    -0.71120
O33         O  0.02331083  0.47001170  0.47006021    -0.70670
O34         O  0.03462032  0.50599052  0.54451043    -0.61930
O35         O  0.01953505  0.45929821  0.49553290    -0.74430
O36         O  0.03474410  0.53916522  0.47865203    -0.73210
Cu37       Cu  0.98751567  0.50798641  0.50174513     1.04560
Cu38       Cu  0.05720802  0.49720524  0.49477838     1.04330
C39         C  0.01274043  0.55378933  0.47837970     0.93090
C40         C  0.99962468  0.45330671  0.51236568     0.92230
C41         C  0.01237037  0.51594250  0.55474838     0.84370
C42         C  0.00323623  0.47826220  0.45336002     0.90640
O43         O  0.58119502  0.51268026  0.04975166    -0.73110
O44         O  0.50247183  0.49437463  0.05346059    -0.74090
O45         O  0.54930201  0.46239198  0.05303679    -0.62710
O46         O  0.53282380  0.54192104  0.05089654    -0.71120
O47         O  0.53694125  0.54530202  0.00571698    -0.70670
O48         O  0.57002904  0.46769427  0.01315533    -0.61930
O49         O  0.50414437  0.47598405  0.01155674    -0.74430
O50         O  0.58670913  0.48910254  0.01026710    -0.73210
Cu51       Cu  0.54118555  0.50267095  0.05149133     1.04560
Cu52       Cu  0.53785789  0.49495639  0.98403606     1.04330
C53         C  0.59687445  0.50469008  0.03044646     0.93090
C54         C  0.49167090  0.48043971  0.03425649     0.92230
C55         C  0.56366955  0.45188023  0.03401301     0.84370
C56         C  0.53402226  0.55658394  0.02953198     0.90640
N57         N  0.25214905  0.44455012  0.06041918    -0.27460
N58         N  0.23863221  0.42779038  0.07691436    -0.35310
C59         C  0.21170147  0.42960322  0.07120115     0.00890
C60         C  0.20808147  0.44846771  0.05027199     0.06910
C61         C  0.23407633  0.45774630  0.04400161    -0.06190
H62         H  0.19596675  0.41741756  0.08097494     0.07580
H63         H  0.23958808  0.47180123  0.02772264     0.08780
Cu64       Cu  0.25666979  0.40110454  0.10497708     0.44170
Cu65       Cu  0.29452897  0.44592826  0.05835478     0.41990
Cu66       Cu  0.32861438  0.39200317  0.09772914     0.43880
N67         N  0.27906972  0.37339103  0.12852191    -0.34840
N68         N  0.30562834  0.36930102  0.12489176    -0.29100
C69         C  0.31443745  0.34962096  0.14221464    -0.05200
C70         C  0.29235603  0.34110044  0.15769681     0.07020
C71         C  0.27023989  0.35661286  0.14857342     0.00820
H72         H  0.33545361  0.34247482  0.14376633     0.08470
H73         H  0.24926927  0.35558537  0.15573332     0.07550
N74         N  0.34868110  0.41981949  0.07307778    -0.36290
N75         N  0.33656596  0.43971477  0.05896367    -0.28470
C76         C  0.35592286  0.45496059  0.04661870    -0.03710
C77         C  0.38134315  0.44425142  0.05372538     0.04900
C78         C  0.37596702  0.42187089  0.07020682     0.02990
H79         H  0.35182749  0.47287719  0.03404446     0.08100
H80         H  0.39084684  0.40866071  0.08026470     0.06930
N81         N  0.09729141  0.43969653  0.70581391    -0.27460
N82         N  0.11299294  0.42036446  0.69466964    -0.35310
C83         C  0.11148960  0.42177585  0.66715023     0.00890
C84         C  0.09380417  0.44279077  0.66006360     0.06910
C85         C  0.08519733  0.45397416  0.68511428    -0.06190
H86         H  0.12308516  0.40878218  0.65321228     0.07580
H87         H  0.07187888  0.47163692  0.68800029     0.08780
Cu88       Cu  0.13816898  0.39357687  0.71563123     0.44170
Cu89       Cu  0.09483686  0.44528039  0.74900536     0.41990
Cu90       Cu  0.14552610  0.40211583  0.78658798     0.43880
N91         N  0.16652109  0.37139218  0.73785976    -0.34840
N92         N  0.17040986  0.37548800  0.76448235    -0.29100
C93         C  0.19092865  0.35903361  0.77322915    -0.05200
C94         C  0.20002600  0.34369711  0.75091459     0.07020
C95         C  0.18408871  0.35201136  0.72884363     0.00820
H96         H  0.19818623  0.35785115  0.79430278     0.08470
H97         H  0.18532983  0.34476848  0.70775704     0.07550
N98         N  0.11543465  0.42592415  0.80515634    -0.36290
N99         N  0.09743808  0.44205046  0.79241958    -0.28470
C100        C  0.08090853  0.45353777  0.81168220    -0.03710
C101        C  0.08876004  0.44373257  0.83742449     0.04900
C102        C  0.11057078  0.42631698  0.83235967     0.02990
H103        H  0.06384116  0.46715729  0.80723222     0.08100
H104        H  0.12196337  0.41445034  0.84740677     0.06930
N105        N  0.98564674  0.44230116  0.29374386    -0.27460
N106        N  0.97247497  0.42192590  0.30598805    -0.35310
C107        C  0.97588668  0.42403579  0.33332445     0.00890
C108        C  0.99187924  0.44674046  0.33881363     0.06910
C109        C  0.99776100  0.45805422  0.31335807    -0.06190
H110        H  0.96617913  0.41078311  0.34823136     0.07580
H111        H  0.00903339  0.47682358  0.30947789     0.08780
Cu112      Cu  0.94684589  0.39366852  0.28725500     0.44170
Cu113      Cu  0.98484195  0.44842637  0.25104161     0.41990
Cu114      Cu  0.93277499  0.40570406  0.21785658     0.43880
N115        N  0.91720555  0.37183280  0.26608300    -0.34840
N116        N  0.91131374  0.37727933  0.24012997    -0.29100
C117        C  0.89069072  0.36099491  0.23161044    -0.05200
C118        C  0.88335878  0.34439133  0.25333970     0.07020
C119        C  0.90056038  0.35170826  0.27493389     0.00820
H120        H  0.88199719  0.36102838  0.21104384     0.08470
H121        H  0.90077186  0.34333228  0.29554511     0.07550
N122        N  0.95936596  0.43064553  0.19699453    -0.36290
N123        N  0.97847586  0.44646081  0.20834836    -0.28470
C124        C  0.99304063  0.45825088  0.18799134    -0.03710
C125        C  0.98264903  0.44892017  0.16292264     0.04900
C126        C  0.96131686  0.43163589  0.16951261     0.02990
H127        H  0.01064714  0.47149055  0.19117182     0.08100
H128        H  0.94856226  0.41992642  0.15537086     0.06930
O129        O  0.03320643  0.47888197  0.95772994    -0.73110
O130        O  0.02353477  0.49002372  0.03889306    -0.74090
O131        O  0.08779726  0.49152848  0.00387054    -0.62710
O132        O  0.00965684  0.48145804  0.97124357    -0.71120
O133        O  0.00569282  0.44209588  0.99442539    -0.70670
O134        O  0.08360470  0.44752201  0.01545260    -0.61930
O135        O  0.03435432  0.44597983  0.04205035    -0.74430
O136        O  0.05795626  0.44156443  0.96607703    -0.73210
Cu137      Cu  0.03731616  0.51480180  0.99703461     1.04560
Cu138      Cu  0.04527869  0.44469295  0.00453288     1.04330
C139        C  0.04964675  0.45925662  0.94908289     0.93090
C140        C  0.02371057  0.46724252  0.05239645     0.92230
C141        C  0.09841332  0.46855981  0.01163723     0.84370
C142        C  0.99435797  0.46038976  0.97971078     0.90640
N143        N  0.74898823  0.55221446  0.06158663    -0.27460
N144        N  0.73596569  0.56941948  0.07826565    -0.35310
C145        C  0.70886321  0.56531639  0.07572292     0.00890
C146        C  0.70445630  0.54511843  0.05594008     0.06910
C147        C  0.73038199  0.53694466  0.04770571    -0.06190
H148        H  0.69369235  0.57594576  0.08800018     0.07580
H149        H  0.73535568  0.52133730  0.03249544     0.08780
Cu150      Cu  0.75433457  0.59881929  0.10341386     0.44170
Cu151      Cu  0.79126449  0.55019006  0.05851290     0.41990
Cu152      Cu  0.82668783  0.60031765  0.10196396     0.43880
N153        N  0.77712454  0.62584951  0.12748381    -0.34840
N154        N  0.80423047  0.62536615  0.12777783    -0.29100
C155        C  0.81356125  0.64373722  0.14640041    -0.05200
C156        C  0.79117254  0.65674287  0.15802734     0.07020
C157        C  0.76835706  0.64506776  0.14551767     0.00820
H158        H  0.83502454  0.64763151  0.15078139     0.08470
H159        H  0.74702739  0.64972690  0.14964679     0.07550
N160        N  0.84583354  0.57379397  0.07490418    -0.36290
N161        N  0.83343156  0.55485181  0.05972510    -0.28470
C162        C  0.85246439  0.54045891  0.04567011    -0.03710
C163        C  0.87823154  0.55113752  0.05208633     0.04900
C164        C  0.87289813  0.57232988  0.07064729     0.02990
H165        H  0.84746108  0.52328725  0.03239118     0.08100
H166        H  0.88756723  0.58598549  0.08045076     0.06930
N167        N  0.98602106  0.56011036  0.70955937    -0.27460
N168        N  0.96884915  0.57656430  0.69627369    -0.35310
C169        C  0.96946642  0.57034958  0.66932568     0.00890
C170        C  0.98784916  0.54895206  0.66556781     0.06910
C171        C  0.99828733  0.54314828  0.69137436    -0.06190
H172        H  0.95725245  0.58048381  0.65366069     0.07580
H173        H  0.01315853  0.52739536  0.69664229     0.08780
Cu174      Cu  0.94421095  0.60583496  0.71494855     0.44170
Cu175      Cu  0.99096368  0.56060796  0.75171753     0.41990
Cu176      Cu  0.94359112  0.60540647  0.78859786     0.43880
N177        N  0.91785671  0.62985747  0.73810261    -0.34840
N178        N  0.91649286  0.62845746  0.76523504    -0.29100
C179        C  0.89635074  0.64522138  0.77414033    -0.05200
C180        C  0.88485814  0.65803812  0.75147859     0.07020
C181        C  0.89898674  0.64793851  0.72897646     0.00820
H182        H  0.89097978  0.64835159  0.79553335     0.08470
H183        H  0.89553791  0.65298401  0.70754617     0.07550
N184        N  0.97555618  0.58405912  0.80691847    -0.36290
N185        N  0.99237409  0.56722105  0.79365012    -0.28470
C186        C  0.01037757  0.55634701  0.81166973    -0.03710
C187        C  0.00497481  0.56746875  0.83729301     0.04900
C188        C  0.98266715  0.58470152  0.83367240     0.02990
H189        H  0.02613366  0.54144949  0.80650492     0.08100
H190        H  0.97197693  0.59631300  0.84942577     0.06930
N191        N  0.11092682  0.55316365  0.20481041    -0.27460
N192        N  0.12989820  0.56931273  0.19419895    -0.35310
C193        C  0.12887012  0.56767025  0.16666802     0.00890
C194        C  0.10841357  0.54941917  0.15943537     0.06910
C195        C  0.09734613  0.54049687  0.18404064    -0.06190
H196        H  0.14130643  0.57982754  0.15291432     0.07580
H197        H  0.07982815  0.52708474  0.18659373     0.08780
Cu198      Cu  0.15482144  0.59507167  0.21660007     0.44170
Cu199      Cu  0.10379043  0.55165781  0.24698439     0.41990
Cu200      Cu  0.14534134  0.60132123  0.28842947     0.43880
N201        N  0.17647273  0.62269635  0.24017134    -0.34840
N202        N  0.17255297  0.62624491  0.26684713    -0.29100
C203        C  0.18935828  0.64648928  0.27587961    -0.05200
C204        C  0.20463645  0.65561224  0.25368440     0.07020
C205        C  0.19591940  0.64005827  0.23147002     0.00820
H206        H  0.19081174  0.65354996  0.29702537     0.08470
H207        H  0.20299793  0.64135864  0.21042963     0.07550
N208        N  0.11926603  0.57134570  0.30445493    -0.36290
N209        N  0.10401123  0.55394728  0.28981643    -0.28470
C210        C  0.09067659  0.53700514  0.30711491    -0.03710
C211        C  0.09827302  0.54376255  0.33378220     0.04900
C212        C  0.11622655  0.56566479  0.33133146     0.02990
H213        H  0.07735801  0.52030209  0.30069185     0.08100
H214        H  0.12681781  0.57630025  0.34791474     0.06930
O215        O  0.02669684  0.55696734  0.96456215    -0.73110
O216        O  0.05434390  0.55479347  0.03916847    -0.74090
O217        O  0.08023822  0.55691195  0.99038077    -0.62710
O218        O  0.00370272  0.55270704  0.01457415    -0.71120
O219        O  0.99877640  0.50763644  0.00615007    -0.70670
O220        O  0.07478182  0.51640223  0.96907524    -0.61930
O221        O  0.06417162  0.51053592  0.03636757    -0.74430
O222        O  0.05062865  0.51895062  0.95679753    -0.73210
Cu223      Cu  0.04126330  0.55492451  0.00210329     1.04560
Cu224      Cu  0.04870864  0.48416725  0.99654203     1.04330
C225        C  0.03509109  0.53909698  0.94779653     0.93090
C226        C  0.06514202  0.53358560  0.04937271     0.92230
C227        C  0.09091270  0.53722795  0.97687985     0.84370
C228        C  0.98915908  0.53115727  0.01426247     0.90640
N229        N  0.74966106  0.44731870  0.94220062    -0.27460
N230        N  0.73724860  0.42790746  0.92753690    -0.35310
C231        C  0.71002878  0.43095893  0.92963927     0.00890
C232        C  0.70404605  0.45333922  0.94664839     0.06910
C233        C  0.73011103  0.46326526  0.95413752    -0.06190
H234        H  0.69576498  0.41804671  0.91838994     0.07580
H235        H  0.73490491  0.48091568  0.96689030     0.08780
Cu236      Cu  0.75555630  0.39828498  0.90265134     0.44170
Cu237      Cu  0.79292886  0.45117058  0.94364753     0.41990
Cu238      Cu  0.82537815  0.40532130  0.89285127     0.43880
N239        N  0.77647884  0.37357855  0.87478151    -0.34840
N240        N  0.80288906  0.37736923  0.87041538    -0.29100
C241        C  0.81145969  0.36002462  0.85060142    -0.05200
C242        C  0.78930960  0.34431301  0.84218273     0.07020
C243        C  0.76738967  0.35332954  0.85796945     0.00820
H244        H  0.83232420  0.35877047  0.84314395     0.08470
H245        H  0.74638974  0.34613494  0.85693617     0.07550
N246        N  0.84663501  0.43023016  0.91970582    -0.36290
N247        N  0.83584160  0.44708559  0.93830227    -0.28470
C248        C  0.85669293  0.45870400  0.95278443    -0.03710
C249        C  0.88134931  0.44839264  0.94263042     0.04900
C250        C  0.87407422  0.43038628  0.92192090     0.02990
H251        H  0.85411573  0.47272485  0.97000031     0.08100
H252        H  0.88774002  0.41766723  0.90974077     0.06930
N253        N  0.24813135  0.54993337  0.93539759    -0.27460
N254        N  0.23668062  0.56679039  0.91729724    -0.35310
C255        C  0.20925685  0.56492868  0.91896688     0.00890
C256        C  0.20290283  0.54582771  0.93881208     0.06910
C257        C  0.22798203  0.53685309  0.94912607    -0.06190
H258        H  0.19494636  0.57764060  0.90753469     0.07580
H259        H  0.23129167  0.52295170  0.96618682     0.08780
Cu260      Cu  0.25764786  0.59433148  0.89292873     0.44170
Cu261      Cu  0.29068930  0.54779918  0.94160630     0.41990
Cu262      Cu  0.32850599  0.60267593  0.90583079     0.43880
N263        N  0.28092671  0.62344229  0.87286742    -0.34840
N264        N  0.30720445  0.62739752  0.87840289    -0.29100
C265        C  0.31662507  0.64800001  0.86260665    -0.05200
C266        C  0.29518025  0.65718177  0.84619547     0.07020
C267        C  0.27287867  0.64114750  0.85320763     0.00820
H268        H  0.33763280  0.65522173  0.86256479     0.08470
H269        H  0.25230509  0.64228931  0.84473809     0.07550
N270        N  0.34655097  0.57259888  0.93008718    -0.36290
N271        N  0.33345734  0.55232257  0.94257687    -0.28470
C272        C  0.35218627  0.53594653  0.95503312    -0.03710
C273        C  0.37806394  0.54659574  0.95005096     0.04900
C274        C  0.37367073  0.56978829  0.93435593     0.02990
H275        H  0.34736821  0.51762590  0.96664606     0.08100
H276        H  0.38915296  0.58335641  0.92609628     0.06930
O277        O  0.57503247  0.50256359  0.96900321    -0.73110
O278        O  0.50400626  0.51866277  0.99411770    -0.74090
O279        O  0.53733916  0.45597603  0.98654896    -0.62710
O280        O  0.57355704  0.53454497  0.98021903    -0.71120
O281        O  0.54970544  0.54380572  0.94205724    -0.70670
O282        O  0.53550551  0.46344360  0.94121835    -0.61930
O283        O  0.50336247  0.51146916  0.94883362    -0.74430
O284        O  0.58230182  0.49748226  0.92692881    -0.73210
Cu285      Cu  0.55086377  0.50713580  0.01166011     1.04560
Cu286      Cu  0.54296281  0.50414846  0.94074587     1.04330
C287        C  0.59247148  0.49605717  0.95045052     0.93090
C288        C  0.49121740  0.51811367  0.97101888     0.92230
C289        C  0.53305412  0.44742182  0.96184153     0.84370
C290        C  0.56511281  0.55215323  0.96147319     0.90640
N291        N  0.60456989  0.29362594  0.05500143    -0.27460
N292        N  0.62510010  0.30519132  0.06879965    -0.35310
C293        C  0.62282141  0.33271224  0.06764438     0.00890
C294        C  0.59983169  0.33905930  0.05236476     0.06910
C295        C  0.58870250  0.31389885  0.04440268    -0.06190
H296        H  0.63657417  0.34706353  0.07782918     0.07580
H297        H  0.57003886  0.31061452  0.03263706     0.08780
Cu298      Cu  0.65415111  0.28459520  0.09158215     0.44170
Cu299      Cu  0.59838154  0.25073698  0.05394956     0.41990
Cu300      Cu  0.63803461  0.21620276  0.10810195     0.43880
N301        N  0.67592981  0.26277738  0.12045222    -0.34840
N302        N  0.66904065  0.23753819  0.12761314    -0.29100
C303        C  0.68527988  0.22932079  0.14844988    -0.05200
C304        C  0.70326601  0.25052750  0.15450252     0.07020
C305        C  0.69687312  0.27142091  0.13636825     0.00820
H306        H  0.68393550  0.20951362  0.15849275     0.08470
H307        H  0.70602653  0.29170297  0.13543228     0.07550
N308        N  0.61110997  0.19642189  0.08189475    -0.36290
N309        N  0.59739151  0.20808537  0.06142213    -0.28470
C310        C  0.58422276  0.18807651  0.04712269    -0.03710
C311        C  0.58998552  0.16281277  0.05938618     0.04900
C312        C  0.60696271  0.16910366  0.08135911     0.02990
H313        H  0.57173697  0.19162696  0.02897258     0.08100
H314        H  0.61683176  0.15467399  0.09518439     0.06930
N315        N  0.60684096  0.70819786  0.94959849    -0.27460
N316        N  0.62785203  0.69584280  0.93751519    -0.35310
C317        C  0.62668901  0.66870722  0.94239877     0.00890
C318        C  0.60389515  0.66370119  0.95825389     0.06910
C319        C  0.59148656  0.68906355  0.96220387    -0.06190
H320        H  0.64031432  0.65350691  0.93341053     0.07580
H321        H  0.57228841  0.69316849  0.97258569     0.08780
Cu322      Cu  0.65485663  0.71456491  0.91105747     0.44170
Cu323      Cu  0.59992504  0.75025068  0.94794936     0.41990
Cu324      Cu  0.64434373  0.78557841  0.89963766     0.43880
N325        N  0.67503895  0.73584002  0.88070823    -0.34840
N326        N  0.67010785  0.76210030  0.87562971    -0.29100
C327        C  0.68533672  0.77011454  0.85416289    -0.05200
C328        C  0.70074856  0.74776501  0.84556152     0.07020
C329        C  0.69379507  0.72636035  0.86280165     0.00820
H330        H  0.68564312  0.79079896  0.84593207     0.08470
H331        H  0.70158071  0.70544773  0.86227380     0.07550
N332        N  0.62128311  0.80506380  0.92931681    -0.36290
N333        N  0.60440350  0.79260868  0.94645675    -0.28470
C334        C  0.59338983  0.81158449  0.96348357    -0.03710
C335        C  0.60447508  0.83690482  0.95696135     0.04900
C336        C  0.62180855  0.83210041  0.93513099     0.02990
H337        H  0.57903091  0.80717302  0.97979404     0.08100
H338        H  0.63398302  0.84714610  0.92428927     0.06930
N339        N  0.59950158  0.94009284  0.20405303    -0.27460
N340        N  0.61405641  0.91983153  0.19289988    -0.35310
C341        C  0.61320616  0.92164215  0.16537734     0.00890
C342        C  0.59766917  0.94421601  0.15824768     0.06910
C343        C  0.58902142  0.95549234  0.18327514    -0.06190
H344        H  0.62406620  0.90796091  0.15149232     0.07580
H345        H  0.57643343  0.97369811  0.18609984     0.08780
Cu346      Cu  0.63772149  0.89134237  0.21332152     0.44170
Cu347      Cu  0.59576800  0.94538056  0.24738513     0.41990
Cu348      Cu  0.64408020  0.89912875  0.28323821     0.43880
N349        N  0.66611797  0.86894928  0.23522319    -0.34840
N350        N  0.66955709  0.87295034  0.26188402    -0.29100
C351        C  0.69022958  0.85692772  0.27093521    -0.05200
C352        C  0.69995900  0.84193770  0.24871897     0.07020
C353        C  0.68421467  0.84999202  0.22638790     0.00820
H354        H  0.69716669  0.85581996  0.29212074     0.08470
H355        H  0.68596804  0.84289724  0.20529162     0.07550
N356        N  0.61530165  0.92342031  0.30253971    -0.36290
N357        N  0.59804414  0.94098117  0.29087341    -0.28470
C358        C  0.58305942  0.95293411  0.31118453    -0.03710
C359        C  0.59158225  0.94234216  0.33660705     0.04900
C360        C  0.61154452  0.92325995  0.32980374     0.02990
H361        H  0.56707114  0.96808313  0.30776974     0.08100
H362        H  0.62200672  0.90904032  0.34322906     0.06930
O363        O  0.59393548  0.04217216  0.00958142    -0.73110
O364        O  0.59954280  0.96610666  0.98063802    -0.74090
O365        O  0.59818139  0.01781857  0.95806011    -0.62710
O366        O  0.60231617  0.99275319  0.03398284    -0.71120
O367        O  0.56495968  0.96790960  0.02872605    -0.70670
O368        O  0.55365492  0.01288032  0.96014641    -0.61930
O369        O  0.55932098  0.95695336  0.00135194    -0.74430
O370        O  0.55299595  0.03446970  0.02956118    -0.73210
Cu371      Cu  0.59830560  0.00463090  0.99536849     1.04560
Cu372      Cu  0.52808512  0.99608004  0.99971593     1.04330
C373        C  0.57441553  0.04977356  0.02527255     0.93090
C374        C  0.58074032  0.94893772  0.98656490     0.92230
C375        C  0.57505999  0.01949684  0.94690987     0.84370
C376        C  0.58531382  0.97612956  0.04388105     0.90640
N377        N  0.48239484  0.79768602  0.05751301    -0.27460
N378        N  0.46781996  0.80797690  0.07806842    -0.35310
C379        C  0.46825543  0.83558444  0.07708394     0.00890
C380        C  0.48361103  0.84341365  0.05471833     0.06910
C381        C  0.49257827  0.81885458  0.04280504    -0.06190
H382        H  0.45744872  0.84902379  0.09124055     0.07580
H383        H  0.50524838  0.81657795  0.02468957     0.08780
Cu384      Cu  0.44567933  0.78526313  0.10578279     0.44170
Cu385      Cu  0.48646461  0.75511471  0.05093898     0.41990
Cu386      Cu  0.44207615  0.71361927  0.09687501     0.43880
N387        N  0.41964873  0.76126846  0.12858678    -0.34840
N388        N  0.41712191  0.73444548  0.12463903    -0.29100
C389        C  0.39740025  0.72486732  0.14141659    -0.05200
C390        C  0.38740649  0.74687623  0.15674302     0.07020
C391        C  0.40201896  0.76956983  0.14810160     0.00820
H392        H  0.39112501  0.70352189  0.14264317     0.08470
H393        H  0.39969940  0.79067230  0.15509743     0.07550
N394        N  0.47100373  0.69760778  0.06979347    -0.36290
N395        N  0.48654148  0.71193180  0.05273409    -0.28470
C396        C  0.50309333  0.69425645  0.03897713    -0.03710
C397        C  0.49782796  0.66778869  0.04813745     0.04900
C398        C  0.47753674  0.67077891  0.06765495     0.02990
H399        H  0.51857369  0.70032272  0.02432359     0.08100
H400        H  0.46845726  0.65458736  0.07982456     0.06930
N401        N  0.48131848  0.29264903  0.94563229    -0.27460
N402        N  0.46193940  0.30538925  0.93135114    -0.35310
C403        C  0.46623144  0.33265664  0.93272623     0.00890
C404        C  0.48937281  0.33742248  0.94866991     0.06910
C405        C  0.49847447  0.31155882  0.95652782    -0.06190
H406        H  0.45415272  0.34784799  0.92175491     0.07580
H407        H  0.51718652  0.30659783  0.96753860     0.08780
Cu408      Cu  0.43305488  0.28596893  0.90672193     0.44170
Cu409      Cu  0.48578454  0.25027397  0.94638069     0.41990
Cu410      Cu  0.44393620  0.21439064  0.89506709     0.43880
N411        N  0.41095691  0.26354905  0.87791477    -0.34840
N412        N  0.41579518  0.23721098  0.87279035    -0.29100
C413        C  0.39964787  0.22880900  0.85182060    -0.05200
C414        C  0.38375581  0.25095578  0.84357648     0.07020
C415        C  0.39136490  0.27263476  0.86057114     0.00820
H416        H  0.39938955  0.20810675  0.84337992     0.08470
H417        H  0.38372368  0.29359510  0.85998176     0.07550
N418        N  0.47172638  0.19535979  0.92107991    -0.36290
N419        N  0.48672834  0.20811445  0.94000572    -0.28470
C420        C  0.50171598  0.18931622  0.95378984    -0.03710
C421        C  0.49604548  0.16354967  0.94275174     0.04900
C422        C  0.47675334  0.16820505  0.92225996     0.02990
H423        H  0.51549644  0.19405537  0.97072912     0.08100
H424        H  0.46624791  0.15293247  0.90977197     0.06930
N425        N  0.49161488  0.93950271  0.79284678    -0.27460
N426        N  0.48013243  0.91796622  0.80477510    -0.35310
C427        C  0.48599967  0.91835882  0.83183331     0.00890
C428        C  0.50196672  0.94115728  0.83749477     0.06910
C429        C  0.50480312  0.95442825  0.81239757    -0.06190
H430        H  0.47769363  0.90405688  0.84662755     0.07580
H431        H  0.51496666  0.97388854  0.80881023     0.08780
Cu432      Cu  0.45364243  0.89061203  0.78565007     0.44170
Cu433      Cu  0.48789548  0.94751656  0.75051608     0.41990
Cu434      Cu  0.43884780  0.90230247  0.71521770     0.43880
N435        N  0.42408506  0.86854156  0.76435784    -0.34840
N436        N  0.41789093  0.87354021  0.73834047    -0.29100
C437        C  0.39708176  0.85703088  0.73048883    -0.05200
C438        C  0.39006104  0.84073845  0.75265482     0.07020
C439        C  0.40760946  0.84852504  0.77378280     0.00820
H440        H  0.38792490  0.85677664  0.71012295     0.08470
H441        H  0.40805172  0.84063747  0.79458607     0.07550
N442        N  0.46383939  0.93029207  0.69535808    -0.36290
N443        N  0.48159577  0.94694857  0.70767973    -0.28470
C444        C  0.49506800  0.96121532  0.68816535    -0.03710
C445        C  0.48545350  0.95294060  0.66229713     0.04900
C446        C  0.46559320  0.93339540  0.66796428     0.02990
H447        H  0.51086273  0.97624903  0.69262825     0.08100
H448        H  0.45390426  0.92136816  0.65318317     0.06930
O449        O  0.48886207  0.02084263  0.03571690    -0.73110
O450        O  0.49368725  0.99265686  0.95927944    -0.74090
O451        O  0.48403480  0.96833466  0.00788834    -0.62710
O452        O  0.49015396  0.04391419  0.98426448    -0.71120
O453        O  0.53470155  0.04146542  0.98945861    -0.70670
O454        O  0.52180152  0.97205607  0.03247774    -0.61930
O455        O  0.53511083  0.97290375  0.96587001    -0.74430
O456        O  0.52849992  0.99897827  0.04434405    -0.73210
Cu457      Cu  0.48935185  0.00653654  0.99691643     1.04560
Cu458      Cu  0.55963480  0.00124732  0.00553596     1.04330
C459        C  0.50822933  0.01512802  0.05263029     0.93090
C460        C  0.51362940  0.97798682  0.95055866     0.92230
C461        C  0.50068164  0.95776619  0.02449762     0.84370
C462        C  0.51326874  0.05486815  0.98289790     0.90640
N463        N  0.75478676  0.93894014  0.55668835    -0.27460
N464        N  0.74101062  0.92638994  0.57645317    -0.35310
C465        C  0.71396986  0.92886921  0.57160387     0.00890
C466        C  0.71010981  0.94329852  0.54748014     0.06910
C467        C  0.73642517  0.94979604  0.53870875    -0.06190
H468        H  0.69822544  0.92034047  0.58464697     0.07580
H469        H  0.74180427  0.96076761  0.52017172     0.08780
Cu470      Cu  0.75749486  0.90310221  0.60819119     0.44170
Cu471      Cu  0.79808966  0.93917289  0.55451728     0.41990
Cu472      Cu  0.82786904  0.89117765  0.60319131     0.43880
N473        N  0.77743001  0.87460251  0.63285923    -0.34840
N474        N  0.80383289  0.86948784  0.62969462    -0.29100
C475        C  0.81147810  0.84888630  0.64635290    -0.05200
C476        C  0.78874939  0.84071714  0.66095798     0.07020
C477        C  0.76742554  0.85746360  0.65205599     0.00820
H478        H  0.83209255  0.84061596  0.64777279     0.08470
H479        H  0.74618642  0.85672028  0.65842724     0.07550
N480        N  0.85073927  0.91617029  0.57860288    -0.36290
N481        N  0.84075139  0.93367584  0.56027798    -0.28470
C482        C  0.86212760  0.94682851  0.54855586    -0.03710
C483        C  0.88627440  0.93703789  0.56046378     0.04900
C484        C  0.87819718  0.91783813  0.57941113     0.02990
H485        H  0.86025060  0.96285153  0.53323905     0.08100
H486        H  0.89130175  0.90613360  0.59313721     0.06930
N487        N  0.98380287  0.29770653  0.56128706    -0.27460
N488        N  0.97034442  0.30953003  0.58186155    -0.35310
C489        C  0.97179716  0.33710543  0.57944030     0.00890
C490        C  0.98679110  0.34318551  0.55625048     0.06910
C491        C  0.99404772  0.31776546  0.54509804    -0.06190
H492        H  0.96162854  0.35168257  0.59293842     0.07580
H493        H  0.00524216  0.31415715  0.52622524     0.08780
Cu494      Cu  0.94700930  0.28860141  0.61052040     0.44170
Cu495      Cu  0.98533408  0.25458552  0.55541397     0.41990
Cu496      Cu  0.93377045  0.21786846  0.59520799     0.43880
N497        N  0.91896355  0.26528345  0.63225062    -0.34840
N498        N  0.91326304  0.23941104  0.62578168    -0.29100
C499        C  0.89302740  0.23037087  0.64213886    -0.05200
C500        C  0.88576944  0.25157522  0.65985439     0.07020
C501        C  0.90266304  0.27339080  0.65308391     0.00820
H502        H  0.88429726  0.20988565  0.64119428     0.08470
H503        H  0.90262609  0.29385187  0.66210171     0.07550
N504        N  0.95960924  0.19887786  0.56714264    -0.36290
N505        N  0.97933902  0.21154409  0.55351835    -0.28470
C506        C  0.99383455  0.19233920  0.53945875    -0.03710
C507        C  0.98217290  0.16661214  0.54398407     0.04900
C508        C  0.96072947  0.17165376  0.56182143     0.02990
H509        H  0.01185581  0.19664713  0.52729660     0.08100
H510        H  0.94775933  0.15641974  0.57141050     0.06930
N511        N  0.10119310  0.79699856  0.56507373    -0.27460
N512        N  0.11831172  0.80873094  0.58281832    -0.35310
C513        C  0.11438486  0.83607998  0.58282933     0.00890
C514        C  0.09434985  0.84257637  0.56356294     0.06910
C515        C  0.08612835  0.81708191  0.55295931    -0.06190
H516        H  0.12475508  0.84977976  0.59698503     0.07580
H517        H  0.07026332  0.81343477  0.53767469     0.08780
Cu518      Cu  0.14680845  0.78866458  0.60730406     0.44170
Cu519      Cu  0.09863196  0.75389532  0.56039058     0.41990
Cu520      Cu  0.14278980  0.71687176  0.61013561     0.43880
N521        N  0.17264335  0.76579189  0.63221214    -0.34840
N522        N  0.17029439  0.73877416  0.63410589    -0.29100
C523        C  0.18838422  0.72939418  0.65287416    -0.05200
C524        C  0.20305037  0.75166873  0.66298255     0.07020
C525        C  0.19265869  0.77444187  0.64938697     0.00820
H526        H  0.19083352  0.70797014  0.65851152     0.08470
H527        H  0.19869645  0.79573500  0.65223918     0.07550
N528        N  0.11555092  0.69810344  0.58329689    -0.36290
N529        N  0.09999304  0.71074247  0.56478594    -0.28470
C530        C  0.08572595  0.69139753  0.55062104    -0.03710
C531        C  0.09236444  0.66558615  0.56112531     0.04900
C532        C  0.11149979  0.67078770  0.58158650     0.02990
H533        H  0.07151103  0.69576279  0.53398409     0.08100
H534        H  0.12240902  0.65575553  0.59390081     0.06930
O535        O  0.01009731  0.97200202  0.51991226    -0.73110
O536        O  0.08721793  0.00746050  0.50764680    -0.74090
O537        O  0.03421445  0.95912221  0.52164706    -0.62710
O538        O  0.02183033  0.03987747  0.50998486    -0.71120
O539        O  0.03196807  0.04634296  0.55386022    -0.70670
O540        O  0.05903948  0.97079648  0.55833568    -0.61930
O541        O  0.08269363  0.02114296  0.55129000    -0.74430
O542        O  0.00557054  0.99687185  0.55868668    -0.73210
Cu543      Cu  0.03650308  0.99789291  0.48597198     1.04560
Cu544      Cu  0.04456759  0.00887684  0.55515151     1.04330
C545        C  0.99539055  0.97954510  0.54185132     0.93090
C546        C  0.09751718  0.01661965  0.53033966     0.92230
C547        C  0.05114628  0.95237184  0.54164376     0.84370
C548        C  0.02235842  0.05522732  0.53156245     0.90640
N549        N  0.59722909  0.06306158  0.79279418    -0.27460
N550        N  0.61161812  0.08259774  0.80530036    -0.35310
C551        C  0.60710233  0.08138871  0.83252486     0.00890
C552        C  0.58897630  0.06007757  0.83751832     0.06910
C553        C  0.58334083  0.04871728  0.81184584    -0.06190
H554        H  0.61737662  0.09423013  0.84767960     0.07580
H555        H  0.57051605  0.03103064  0.80738754     0.08780
Cu556      Cu  0.63897294  0.10842357  0.78562658     0.44170
Cu557      Cu  0.59837784  0.05621026  0.75058731     0.41990
Cu558      Cu  0.65243707  0.09324588  0.71465584     0.43880
N559        N  0.66793563  0.12931292  0.76272335    -0.34840
N560        N  0.67359342  0.12309530  0.73682254    -0.29100
C561        C  0.69378261  0.13968306  0.72798264    -0.05200
C562        C  0.70097689  0.15729027  0.74933828     0.07020
C563        C  0.68417247  0.15019418  0.77102757     0.00820
H564        H  0.70224271  0.13923745  0.70742285     0.08470
H565        H  0.68392058  0.15932166  0.79142156     0.07550
N566        N  0.62550309  0.06592439  0.69580350    -0.36290
N567        N  0.60514564  0.05332312  0.70851020    -0.28470
C568        C  0.58994051  0.03955240  0.68972475    -0.03710
C569        C  0.60163442  0.04335831  0.66414700     0.04900
C570        C  0.62404117  0.06018178  0.66872723     0.02990
H571        H  0.57137265  0.02826705  0.69423692     0.08100
H572        H  0.63736074  0.06891026  0.65330653     0.06930
N573        N  0.48746791  0.06349568  0.29394002    -0.27460
N574        N  0.46418474  0.07136491  0.30549510    -0.35310
C575        C  0.46622227  0.06851731  0.33284167     0.00890
C576        C  0.49249706  0.05947125  0.33963089     0.06910
C577        C  0.50518457  0.05606561  0.31410485    -0.06190
H578        H  0.44940369  0.07337327  0.34635698     0.07580
H579        H  0.52604961  0.04942416  0.31037021     0.08780
Cu580      Cu  0.43167703  0.09162595  0.28654214     0.44170
Cu581      Cu  0.49390294  0.06362952  0.25120733     0.41990
Cu582      Cu  0.44077104  0.10382958  0.21748983     0.43880
N583        N  0.40812950  0.12065206  0.26586265    -0.34840
N584        N  0.41275928  0.12582259  0.23968285    -0.29100
C585        C  0.39719258  0.14712163  0.23148792    -0.05200
C586        C  0.38177535  0.15575016  0.25366583     0.07020
C587        C  0.38907286  0.13850311  0.27520080     0.00820
H588        H  0.39725235  0.15571115  0.21096583     0.08470
H589        H  0.38183185  0.13948114  0.29621533     0.07550
N590        N  0.46901476  0.08048824  0.19700126    -0.36290
N591        N  0.48924920  0.06627567  0.20829745    -0.28470
C592        C  0.50341031  0.05379265  0.18787847    -0.03710
C593        C  0.49133146  0.06066835  0.16263857     0.04900
C594        C  0.46932535  0.07725480  0.16966302     0.02990
H595        H  0.52084649  0.04035193  0.19124957     0.08100
H596        H  0.45366477  0.08567706  0.15629340     0.06930
N597        N  0.33673160  0.05820242  0.55787140    -0.27460
N598        N  0.34915491  0.07381145  0.57655064    -0.35310
C599        C  0.37638195  0.06995370  0.57487940     0.00890
C600        C  0.38152758  0.05054321  0.55454782     0.06910
C601        C  0.35589753  0.04383910  0.54389195    -0.06190
H602        H  0.39125011  0.08165806  0.58668360     0.07580
H603        H  0.35154952  0.02990959  0.52692737     0.08780
Cu604      Cu  0.32955649  0.10081146  0.60311163     0.44170
Cu605      Cu  0.29443795  0.05835569  0.55164153     0.41990
Cu606      Cu  0.25735324  0.10745616  0.59541972     0.43880
N607        N  0.30649995  0.12766637  0.62681897    -0.34840
N608        N  0.27977574  0.13091326  0.62329438    -0.29100
C609        C  0.27074296  0.15049999  0.64079550    -0.05200
C610        C  0.29288191  0.15971339  0.65625872     0.07020
C611        C  0.31520907  0.14476024  0.64693942     0.00820
H612        H  0.24960495  0.15721953  0.64239603     0.08470
H613        H  0.33628596  0.14647569  0.65391688     0.07550
N614        N  0.23881177  0.08041424  0.56788072    -0.36290
N615        N  0.25195446  0.06287126  0.55161054    -0.28470
C616        C  0.23335085  0.04765234  0.53758996    -0.03710
C617        C  0.20742526  0.05607498  0.54556746     0.04900
C618        C  0.21166308  0.07663589  0.56488883     0.02990
H619        H  0.23833042  0.03070685  0.52388808     0.08100
H620        H  0.19613698  0.08731418  0.57675183     0.06930
O621        O  0.55497134  0.05014766  0.54392006    -0.73110
O622        O  0.53015931  0.05774443  0.46825321    -0.74090
O623        O  0.50506429  0.05191242  0.51807144    -0.62710
O624        O  0.58266434  0.05571715  0.49570234    -0.71120
O625        O  0.57719605  0.01788906  0.46965803    -0.70670
O626        O  0.50041907  0.00846364  0.50419644    -0.61930
O627        O  0.55355961  0.02011192  0.45656031    -0.74430
O628        O  0.56668665  0.00648032  0.53698136    -0.73210
Cu629      Cu  0.54341158  0.05367566  0.50648638     1.04560
Cu630      Cu  0.55025884  0.98416998  0.49485583     1.04330
C631        C  0.56537639  0.02800043  0.55249884     0.93090
C632        C  0.53736074  0.04076397  0.44978864     0.92230
C633        C  0.49031171  0.03091918  0.51379699     0.84370
C634        C  0.59287854  0.03841208  0.47894575     0.90640
N635        N  0.25006529  0.93413129  0.44540801    -0.27460
N636        N  0.23943939  0.91405768  0.43018230    -0.35310
C637        C  0.21193561  0.91562078  0.43064048     0.00890
C638        C  0.20457465  0.93771407  0.44693791     0.06910
C639        C  0.22918399  0.94901595  0.45619298    -0.06190
H640        H  0.19831109  0.90221750  0.41907090     0.07580
H641        H  0.23168544  0.96734273  0.46877587     0.08780
Cu642      Cu  0.26167210  0.88749298  0.40588517     0.44170
Cu643      Cu  0.29271709  0.94108731  0.44763324     0.41990
Cu644      Cu  0.32898838  0.90786881  0.38959068     0.43880
N645        N  0.28411801  0.86851379  0.37553109    -0.34840
N646        N  0.30881328  0.87682528  0.36828396    -0.29100
C647        C  0.31750019  0.86128660  0.34696275    -0.05200
C648        C  0.29714681  0.84231800  0.34074566     0.07020
C649        C  0.27632885  0.84747492  0.35925379     0.00820
H650        H  0.33722077  0.86339731  0.33705152     0.08470
H651        H  0.25678601  0.83701140  0.36060050     0.07550
N652        N  0.34753633  0.93268650  0.41907045    -0.36290
N653        N  0.33540018  0.94332730  0.44107723    -0.28470
C654        C  0.35494260  0.95460414  0.45751159    -0.03710
C655        C  0.38025789  0.95120217  0.44485807     0.04900
C656        C  0.37466701  0.93731949  0.42063243     0.02990
H657        H  0.35111587  0.96408016  0.47736237     0.08100
H658        H  0.38950065  0.92964540  0.40593195     0.06930
N659        N  0.99037053  0.79562188  0.43539258    -0.27460
N660        N  0.97056078  0.80861886  0.42186747    -0.35310
C661        C  0.97485818  0.83595072  0.42360368     0.00890
C662        C  0.99854170  0.84037363  0.43875315     0.06910
C663        C  0.00788033  0.81444774  0.44597907    -0.06190
H664        H  0.96179921  0.85146413  0.41434055     0.07580
H665        H  0.02592893  0.80962605  0.45815053     0.08780
Cu666      Cu  0.93935514  0.78922749  0.39989917     0.44170
Cu667      Cu  0.99302808  0.75285590  0.43835828     0.41990
Cu668      Cu  0.94725114  0.71631115  0.39182539     0.43880
N669        N  0.91460152  0.76567303  0.37408250    -0.34840
N670        N  0.91849765  0.73895817  0.37020639    -0.29100
C671        C  0.90097667  0.72981118  0.35072703    -0.05200
C672        C  0.88511481  0.75181453  0.34213293     0.07020
C673        C  0.89416850  0.77423165  0.35740451     0.00820
H674        H  0.89987043  0.70870953  0.34343399     0.08470
H675        H  0.88707730  0.79533403  0.35587833     0.07550
N676        N  0.97496985  0.69702275  0.41768052    -0.36290
N677        N  0.99139399  0.71003383  0.43522238    -0.28470
C678        C  0.00536103  0.69115787  0.45004497    -0.03710
C679        C  0.99737870  0.66521339  0.44108097     0.04900
C680        C  0.97806855  0.66969298  0.42071926     0.02990
H681        H  0.01959944  0.69593059  0.46658614     0.08100
H682        H  0.96631627  0.65422761  0.40966854     0.06930
N683        N  0.74987572  0.06137293  0.43986967    -0.27460
N684        N  0.73765147  0.07299574  0.41840354    -0.35310
C685        C  0.71038839  0.07002521  0.42039400     0.00890
C686        C  0.70488634  0.05595865  0.44418321     0.06910
C687        C  0.73026954  0.05072800  0.45624044    -0.06190
H688        H  0.69556654  0.07851154  0.40605034     0.07580
H689        H  0.73412218  0.04056382  0.47567000     0.08780
Cu690      Cu  0.75634723  0.09568307  0.38824557     0.44170
Cu691      Cu  0.79268288  0.06151867  0.44588140     0.41990
Cu692      Cu  0.82687441  0.10364323  0.39462514     0.43880
N693        N  0.77755521  0.12350385  0.36483571    -0.34840
N694        N  0.80418304  0.12712487  0.36817284    -0.29100
C695        C  0.81248530  0.14819373  0.35256856    -0.05200
C696        C  0.78986095  0.15810044  0.33855888     0.07020
C697        C  0.76800747  0.14198949  0.34663964     0.00820
H698        H  0.83335310  0.15573798  0.35163834     0.08470
H699        H  0.74669911  0.14414274  0.34055699     0.07550
N700        N  0.84709056  0.08007701  0.42295999    -0.36290
N701        N  0.83552341  0.06525507  0.44242514    -0.28470
C702        C  0.85568569  0.05304225  0.45716283    -0.03710
C703        C  0.88105353  0.06064631  0.44629364     0.04900
C704        C  0.87441352  0.07754140  0.42440249     0.02990
H705        H  0.85206371  0.03934318  0.47425141     0.08100
H706        H  0.88804896  0.08672026  0.40962100     0.06930
N707        N  0.10956261  0.29480587  0.44539774    -0.27460
N708        N  0.12030172  0.30629921  0.42331149    -0.35310
C709        C  0.12061623  0.33381244  0.42652970     0.00890
C710        C  0.10999264  0.34021455  0.45211802     0.06910
C711        C  0.10273640  0.31496811  0.46331573    -0.06190
H712        H  0.12755005  0.34792384  0.41092549     0.07580
H713        H  0.09340855  0.31152408  0.48317337     0.08780
Cu714      Cu  0.13723073  0.28503308  0.39074021     0.44170
Cu715      Cu  0.10603716  0.25213690  0.45056305     0.41990
Cu716      Cu  0.15054760  0.21428571  0.40407442     0.43880
N717        N  0.16367120  0.26173126  0.36725874    -0.34840
N718        N  0.16980761  0.23588221  0.37314388    -0.29100
C719        C  0.19012068  0.22729778  0.35653235    -0.05200
C720        C  0.19688282  0.24883478  0.33933720     0.07020
C721        C  0.17968857  0.27032033  0.34659374     0.00820
H722        H  0.19950217  0.20706354  0.35723364     0.08470
H723        H  0.17971343  0.29103903  0.33843919     0.07550
N724        N  0.12634699  0.19579600  0.43350998    -0.36290
N725        N  0.10947087  0.20910441  0.45024496    -0.28470
C726        C  0.09522418  0.19038583  0.46484926    -0.03710
C727        C  0.10397676  0.16424715  0.45707466     0.04900
C728        C  0.12340169  0.16853177  0.43700711     0.02990
H729        H  0.07889647  0.19535879  0.47907305     0.08100
H730        H  0.13360506  0.15290591  0.42475490     0.06930
O731        O  0.08275871  0.99213056  0.44460573    -0.73110
O732        O  0.00531204  0.01799942  0.44937218    -0.74090
O733        O  0.05622132  0.04171724  0.44581638    -0.62710
O734        O  0.02894290  0.96668551  0.44387043    -0.71120
O735        O  0.05273816  0.95872078  0.48200014    -0.70670
O736        O  0.06229335  0.03985423  0.49055706    -0.61930
O737        O  0.99798737  0.00596136  0.49322964    -0.74430
O738        O  0.07714726  0.97034844  0.48472250    -0.73210
Cu739      Cu  0.04344778  0.00454800  0.44633619     1.04560
Cu740      Cu  0.04916199  0.99842961  0.51619040     1.04330
C741        C  0.09311521  0.97733245  0.46358013     0.93090
C742        C  0.98944989  0.01593972  0.46998521     0.92230
C743        C  0.06331414  0.05317144  0.46791279     0.84370
C744        C  0.03709548  0.94995291  0.46180541     0.90640
N745        N  0.77764426  0.20879725  0.28561602    -0.27460
N746        N  0.80066465  0.21841790  0.29650858    -0.35310
C747        C  0.80847393  0.20195310  0.31726722     0.00890
C748        C  0.78920191  0.18127509  0.31957835     0.06910
C749        C  0.76987292  0.18623490  0.29936366    -0.06190
H750        H  0.82685051  0.20477680  0.32959854     0.07580
H751        H  0.75208049  0.17383103  0.29429522     0.08780
Cu752      Cu  0.82052431  0.25305054  0.28245593     0.44170
Cu753      Cu  0.75938612  0.22469432  0.25099629     0.41990
Cu754      Cu  0.79249661  0.28278158  0.21992012     0.43880
N755        N  0.83620522  0.28767235  0.26384184    -0.34840
N756        N  0.82633132  0.29806129  0.24068387    -0.29100
C757        C  0.84159732  0.31982620  0.23346817    -0.05200
C758        C  0.86185056  0.32339143  0.25317612     0.07020
C759        C  0.85785798  0.30275514  0.27219431     0.00820
H760        H  0.83808199  0.33217136  0.21528562     0.08470
H761        H  0.87001065  0.29867415  0.29046109     0.07550
N762        N  0.75837239  0.26361349  0.20334212    -0.36290
N763        N  0.74663678  0.24192799  0.21460886    -0.28470
C764        C  0.72551458  0.23370407  0.19874784    -0.03710
C765        C  0.72374230  0.25129024  0.17659796     0.04900
C766        C  0.74477571  0.27007795  0.18009701     0.02990
H767        H  0.71223550  0.21647931  0.20329087     0.08100
H768        H  0.74993807  0.28705043  0.16673281     0.06930
N769        N  0.82799366  0.76267154  0.29489667    -0.27460
N770        N  0.83869893  0.73987849  0.28434486    -0.35310
C771        C  0.86049240  0.73234221  0.29971541     0.00890
C772        C  0.86380825  0.75155050  0.32063303     0.06910
C773        C  0.84295486  0.77053372  0.31693289    -0.06190
H774        H  0.87320779  0.71445684  0.29568320     0.07580
H775        H  0.83869296  0.78850835  0.32952934     0.08780
Cu776      Cu  0.82377576  0.72046914  0.24912588     0.44170
Cu777      Cu  0.79304491  0.78161251  0.27969393     0.41990
Cu778      Cu  0.76238592  0.74999693  0.21941430     0.43880
N779        N  0.80410607  0.70456072  0.21451472    -0.34840
N780        N  0.78090729  0.71470149  0.20450081    -0.29100
C781        C  0.77252958  0.69903813  0.18312989    -0.05200
C782        C  0.79165531  0.67836167  0.17924060     0.07020
C783        C  0.81147560  0.68248574  0.19934877     0.00820
H784        H  0.75419908  0.70279944  0.17099869     0.08470
H785        H  0.82962305  0.67008909  0.20301283     0.07550
N786        N  0.74751569  0.78537903  0.23784491    -0.36290
N787        N  0.75805786  0.79641894  0.26050589    -0.28470
C788        C  0.74272697  0.81827046  0.26798877    -0.03710
C789        C  0.72185343  0.82122964  0.24883349     0.04900
C790        C  0.72552149  0.80016477  0.22996419     0.02990
H791        H  0.74665415  0.83113739  0.28586660     0.08100
H792        H  0.71280361  0.79550057  0.21218917     0.06930
N793        N  0.26146831  0.70204316  0.24023541    -0.27460
N794        N  0.25163056  0.71315152  0.26309207    -0.35310
C795        C  0.23014887  0.69817308  0.27175789     0.00890
C796        C  0.22609214  0.67683095  0.25323419     0.06910
C797        C  0.24619867  0.67994100  0.23347304    -0.06190
H798        H  0.21808562  0.70283745  0.28985238     0.07580
H799        H  0.24966557  0.66694569  0.21562493     0.08780
Cu800      Cu  0.26714396  0.74871219  0.28071380     0.44170
Cu801      Cu  0.29567460  0.71688122  0.21966899     0.41990
Cu802      Cu  0.32526497  0.77995294  0.24738720     0.43880
N803        N  0.28591328  0.78433329  0.29455330    -0.34840
N804        N  0.30752166  0.79563681  0.28279501    -0.29100
C805        C  0.31512444  0.81802031  0.29746149    -0.05200
C806        C  0.29721403  0.82092693  0.31928321     0.07020
C807        C  0.27895402  0.79930647  0.31677818     0.00820
H808        H  0.33224106  0.83123581  0.29247418     0.08470
H809        H  0.26202205  0.79455883  0.33026662     0.07550
N810        N  0.34026883  0.75929177  0.21321430    -0.36290
N811        N  0.33023990  0.73580931  0.20352046    -0.28470
C812        C  0.34563546  0.72740811  0.18205940    -0.03710
C813        C  0.36602023  0.74676523  0.17796837     0.04900
C814        C  0.36193843  0.76669098  0.19798893     0.02990
H815        H  0.34198463  0.70885908  0.17010101     0.08100
H816        H  0.37405969  0.78506426  0.20152192     0.06930
N817        N  0.33145058  0.79523813  0.74352869    -0.27460
N818        N  0.34268459  0.78442389  0.76587971    -0.35310
C819        C  0.36515183  0.79909905  0.77276991     0.00890
C820        C  0.36830179  0.81984356  0.75360776     0.06910
C821        C  0.34665190  0.81675411  0.73535409    -0.06190
H822        H  0.37842165  0.79470257  0.79016334     0.07580
H823        H  0.34208153  0.82935829  0.71758107     0.08780
Cu824      Cu  0.32755428  0.74958834  0.78528803     0.44170
Cu825      Cu  0.29578985  0.78088943  0.72514674     0.41990
Cu826      Cu  0.26648990  0.71963557  0.75395599     0.43880
N827        N  0.30802025  0.71469107  0.80011247    -0.34840
N828        N  0.28533931  0.70437725  0.78905843    -0.29100
C829        C  0.27725772  0.68257606  0.80389543    -0.05200
C830        C  0.29591677  0.67875416  0.82508659     0.07020
C831        C  0.31522051  0.69938718  0.82206551     0.00820
H832        H  0.25930801  0.67021440  0.79933076     0.08470
H833        H  0.33295850  0.70323976  0.83504708     0.07550
N834        N  0.25067699  0.73909558  0.71947591    -0.36290
N835        N  0.26078213  0.76227407  0.70960455    -0.28470
C836        C  0.24528501  0.77046106  0.68812937    -0.03710
C837        C  0.22472625  0.75124340  0.68409285     0.04900
C838        C  0.22877140  0.73158299  0.70422143     0.02990
H839        H  0.24899706  0.78878340  0.67610761     0.08100
H840        H  0.21642988  0.71345172  0.70785627     0.06930
N841        N  0.32802693  0.26338956  0.79515902    -0.27460
N842        N  0.33875628  0.24072315  0.78437914    -0.35310
C843        C  0.36022205  0.23272223  0.79997789     0.00890
C844        C  0.36324518  0.25147153  0.82134069     0.06910
C845        C  0.34260447  0.27068627  0.81762379    -0.06190
H846        H  0.37275769  0.21471003  0.79594389     0.07580
H847        H  0.33810801  0.28833495  0.83059205     0.08780
Cu848      Cu  0.32387847  0.22188644  0.74890540     0.44170
Cu849      Cu  0.29324383  0.28260884  0.77996774     0.41990
Cu850      Cu  0.26229611  0.25177764  0.71935326     0.43880
N851        N  0.30446102  0.20654080  0.71396077    -0.34840
N852        N  0.28140423  0.21684200  0.70376077    -0.29100
C853        C  0.27354464  0.20158569  0.68187218    -0.05200
C854        C  0.29280761  0.18098015  0.67792803     0.07020
C855        C  0.31216340  0.18475745  0.69854493     0.00820
H856        H  0.25542760  0.20552811  0.66948117     0.08470
H857        H  0.33030700  0.17238761  0.70231566     0.07550
N858        N  0.24719496  0.28682556  0.73869893    -0.36290
N859        N  0.25800346  0.29755834  0.76138904    -0.28470
C860        C  0.24279102  0.31931644  0.76940202    -0.03710
C861        C  0.22165326  0.32260559  0.75060593     0.04900
C862        C  0.22508202  0.30177071  0.73136315     0.02990
H863        H  0.24704437  0.33197546  0.78735321     0.08100
H864        H  0.21221268  0.29747984  0.71360572     0.06930
N865        N  0.82764551  0.23967089  0.70512400    -0.27460
N866        N  0.83798968  0.26232116  0.71635517    -0.35310
C867        C  0.86017003  0.27008113  0.70196939     0.00890
C868        C  0.86412850  0.25124099  0.68086362     0.06910
C869        C  0.84320158  0.23220464  0.68349749    -0.06190
H870        H  0.87258990  0.28799122  0.70668739     0.07580
H871        H  0.83930761  0.21445769  0.67044363     0.08780
Cu872      Cu  0.82182071  0.28140265  0.75098311     0.44170
Cu873      Cu  0.79242625  0.22039878  0.71926790     0.41990
Cu874      Cu  0.76045024  0.25137825  0.77938849     0.43880
N875        N  0.80168841  0.29705859  0.78518631    -0.34840
N876        N  0.77873377  0.28662634  0.79508324    -0.29100
C877        C  0.77049568  0.30200265  0.81668747    -0.05200
C878        C  0.78940130  0.32286762  0.82071461     0.07020
C879        C  0.80892607  0.31909217  0.80047195     0.00820
H880        H  0.75240137  0.29795655  0.82883200     0.08470
H881        H  0.82694045  0.33157042  0.79692212     0.07550
N882        N  0.74631875  0.21588102  0.76022596    -0.36290
N883        N  0.75741079  0.20495284  0.73786344    -0.28470
C884        C  0.74285184  0.18254863  0.73034282    -0.03710
C885        C  0.72185743  0.17911884  0.74908350     0.04900
C886        C  0.72470193  0.20054493  0.76776195     0.02990
H887        H  0.74748426  0.16951310  0.71279920     0.08100
H888        H  0.71187015  0.20486933  0.78539679     0.06930
N889        N  0.82610600  0.70278765  0.76286874    -0.27460
N890        N  0.83556536  0.71300690  0.73960202    -0.35310
C891        C  0.85771710  0.69842318  0.73178157     0.00890
C892        C  0.86260275  0.67840145  0.75133528     0.06910
C893        C  0.84229559  0.68176817  0.77081419    -0.06190
H894        H  0.86968728  0.70249409  0.71354803     0.07580
H895        H  0.83925380  0.66963132  0.78917458     0.08780
Cu896      Cu  0.81881750  0.74713474  0.72042604     0.44170
Cu897      Cu  0.79120449  0.71734140  0.78212878     0.41990
Cu898      Cu  0.75835592  0.77710509  0.75130900     0.43880
N899        N  0.79917060  0.78191860  0.70563191    -0.34840
N900        N  0.77654165  0.79243305  0.71637468    -0.29100
C901        C  0.76887569  0.81468056  0.70179358    -0.05200
C902        C  0.78786669  0.81846214  0.68117036     0.07020
C903        C  0.80680663  0.79742877  0.68420317     0.00820
H904        H  0.75128859  0.82754885  0.70639274     0.08470
H905        H  0.82482413  0.79364340  0.67178887     0.07550
N906        N  0.74471244  0.75813069  0.78655551    -0.36290
N907        N  0.75611592  0.73584421  0.79729078    -0.28470
C908        C  0.74190206  0.72840997  0.81967574    -0.03710
C909        C  0.72085024  0.74717260  0.82330752     0.04900
C910        C  0.72322407  0.76577441  0.80205881     0.02990
H911        H  0.74695821  0.71105337  0.83267617     0.08100
H912        H  0.71026849  0.78347705  0.79804735     0.06930
N913        N  0.24549031  0.26158393  0.28445772    -0.27460
N914        N  0.25659983  0.23955233  0.29595377    -0.35310
C915        C  0.24086128  0.23144388  0.31701590     0.00890
C916        C  0.21896697  0.24945017  0.31901166     0.06910
C917        C  0.22253540  0.26838445  0.29817697    -0.06190
H918        H  0.24526713  0.21395902  0.33007568     0.07580
H919        H  0.20929703  0.28560010  0.29312358     0.08780
Cu920      Cu  0.29266071  0.22169585  0.28285133     0.44170
Cu921      Cu  0.26152537  0.28054516  0.25009276     0.41990
Cu922      Cu  0.32406204  0.25080832  0.22228377     0.43880
N923        N  0.32760619  0.20596244  0.26497113    -0.34840
N924        N  0.33866186  0.21594926  0.24231898    -0.29100
C925        C  0.35984388  0.19973609  0.23494837    -0.05200
C926        C  0.36227382  0.17881364  0.25408135     0.07020
C927        C  0.34162509  0.18343434  0.27287605     0.00820
H928        H  0.37239756  0.20286835  0.21692259     0.08470
H929        H  0.33653563  0.17086567  0.29045878     0.07550
N930        N  0.30443493  0.28511779  0.20589080    -0.36290
N931        N  0.28119413  0.29535358  0.21558649    -0.28470
C932        C  0.27321772  0.31664931  0.19981825    -0.03710
C933        C  0.29253276  0.32018350  0.17943832     0.04900
C934        C  0.31209699  0.29994712  0.18391195     0.02990
H935        H  0.25489435  0.32884413  0.20319184     0.08100
H936        H  0.33032869  0.29600896  0.17186305     0.06930
C937        C  0.07278702  0.12689899  0.44342319    -0.26480
C938        C  0.09113279  0.13743451  0.46304539    -0.14560
C939        C  0.09917875  0.12080631  0.48559256     0.36070
C940        C  0.08939952  0.09357436  0.48725492    -0.25930
C941        C  0.07175777  0.08262445  0.46699285    -0.15170
C942        C  0.06269732  0.09992926  0.44524998     0.37160
N943        N  0.04336325  0.09009542  0.42493043    -0.89420
H944        H  0.06669252  0.13972534  0.42620243     0.18270
H945        H  0.09631195  0.08066732  0.50407560     0.18260
N946        N  0.11746293  0.13060475  0.50683855    -0.88450
H947        H  0.03938426  0.10517433  0.41011057     0.35640
H948        H  0.02478962  0.08653101  0.43499243     0.40740
H949        H  0.12296373  0.15114806  0.50379779     0.40360
H950        H  0.13549824  0.11891485  0.50574542     0.35250
C951        C  0.91152861  0.02651270  0.46973263    -0.26480
C952        C  0.90898771  0.05081402  0.45440064    -0.14560
C953        C  0.93329267  0.06459258  0.44643796     0.36070
C954        C  0.95902052  0.05284231  0.45220418    -0.25930
C955        C  0.96146090  0.02799705  0.46668549    -0.15170
C956        C  0.93727523  0.01535051  0.47608100     0.37160
N957        N  0.93814957  0.99098986  0.49200007    -0.89420
H958        H  0.89343002  0.01561630  0.47650554     0.18270
H959        H  0.97732909  0.06345071  0.44542044     0.18260
N960        N  0.93227395  0.09076406  0.43298739    -0.88450
H961        H  0.94927673  0.97618993  0.48096887     0.35640
H962        H  0.94859233  0.99631516  0.51004055     0.40740
H963        H  0.94235273  0.08886042  0.41409846     0.40360
H964        H  0.94309700  0.10500710  0.44510452     0.35250
C965        C  0.03314674  0.87748453  0.43223851    -0.26480
C966        C  0.01032476  0.86730779  0.44648570    -0.14560
C967        C  0.99792443  0.88358787  0.46704046     0.36070
C968        C  0.00858521  0.90985034  0.47289643    -0.25930
C969        C  0.03065324  0.92049653  0.45819164    -0.15170
C970        C  0.04324409  0.90422982  0.43768475     0.37160
N971        N  0.06562627  0.91522734  0.42206332    -0.89420
H972        H  0.04245563  0.86491929  0.41627444     0.18270
H973        H  0.99908635  0.92260352  0.48829506     0.18260
N974        N  0.97452182  0.87342344  0.48176956    -0.88450
H975        H  0.07242861  0.90074587  0.40757028     0.35640
H976        H  0.08198523  0.91863133  0.43570921     0.40740
H977        H  0.95821011  0.87173243  0.46776884     0.40360
H978        H  0.96830574  0.88767597  0.49673345     0.35250
C979        C  0.13414819  0.96885528  0.43398720    -0.26480
C980        C  0.12140647  0.96577448  0.45978302    -0.14560
C981        C  0.13651001  0.95295832  0.48125356     0.36070
C982        C  0.16386642  0.94455257  0.47673776    -0.25930
C983        C  0.17633047  0.94803757  0.45113438    -0.15170
C984        C  0.16108695  0.95988554  0.42941496     0.37160
N985        N  0.17261864  0.96348300  0.40259041    -0.89420
H986        H  0.12312765  0.97831498  0.41703094     0.18270
H987        H  0.17547849  0.93492704  0.49321512     0.18260
N988        N  0.12428130  0.94836199  0.50756757    -0.88450
H989        H  0.17779998  0.94412336  0.39458385     0.35640
H990        H  0.19053341  0.97518859  0.40459547     0.40740
H991        H  0.12186257  0.96754030  0.51702129     0.40360
H992        H  0.13770672  0.93727624  0.52025758     0.35250
C993        C  0.66196694  0.02917418  0.44304845    -0.26480
C994        C  0.67718866  0.05071648  0.45486296    -0.14560
C995        C  0.66440497  0.06882398  0.47379121     0.36070
C996        C  0.63662893  0.06503629  0.48006337    -0.25930
C997        C  0.62125803  0.04311972  0.46863058    -0.15170
C998        C  0.63435381  0.02497455  0.45000899     0.37160
N999        N  0.62007573  0.00190133  0.43846585    -0.89420
H1000       H  0.67160201  0.01547929  0.42822306     0.18270
H1001       H  0.62727615  0.07908409  0.49471746     0.18260
N1002       N  0.67863192  0.09149066  0.48670877    -0.88450
H1003       H  0.63079480  0.98411016  0.44418417     0.35640
H1004       H  0.62086498  0.00343112  0.41700695     0.40740
H1005       H  0.69908143  0.09260683  0.48056265     0.40360
H1006       H  0.67895629  0.08786643  0.50792680     0.35250
C1007       C  0.41329628  0.04197522  0.51547350    -0.26480
C1008       C  0.40873931  0.04197446  0.54405257    -0.14560
C1009       C  0.43068775  0.03505666  0.56201114     0.36070
C1010       C  0.45681995  0.03041982  0.55127455    -0.25930
C1011       C  0.46165305  0.03198972  0.52294252    -0.15170
C1012       C  0.43971777  0.03736519  0.50473509     0.37160
N1013       N  0.44450514  0.03912238  0.47565296    -0.89420
H1014       H  0.39651587  0.04695613  0.50159452     0.18270
H1015       H  0.47369688  0.02599491  0.56527173     0.18260
N1016       N  0.42704192  0.03176258  0.59107686    -0.88450
H1017       H  0.42614083  0.04291261  0.46504578     0.35640
H1018       H  0.45717069  0.05614050  0.47233303     0.40740
H1019       H  0.41093825  0.01795016  0.59430164     0.40360
H1020       H  0.42219538  0.05073845  0.60000897     0.35250
C1021       C  0.53022382  0.04202901  0.37097457    -0.26480
C1022       C  0.50473328  0.05565566  0.36788776    -0.14560
C1023       C  0.49176658  0.06594806  0.39198391     0.36070
C1024       C  0.50289552  0.05998092  0.41791990    -0.25930
C1025       C  0.52783531  0.04584722  0.42105040    -0.15170
C1026       C  0.54234660  0.03789310  0.39718573     0.37160
N1027       N  0.56984920  0.02735681  0.39935603    -0.89420
H1028       H  0.54107565  0.03485141  0.35291757     0.18270
H1029       H  0.49200152  0.06699029  0.43606099     0.18260
N1030       N  0.46789207  0.08333504  0.39043400    -0.88450
H1031       H  0.57798000  0.02348576  0.37981801     0.35640
H1032       H  0.56900161  0.00840402  0.40918069     0.40740
H1033       H  0.47394062  0.10186920  0.38140917     0.40360
H1034       H  0.46059798  0.08841109  0.41004706     0.35250
C1035       C  0.55689496  0.04210018  0.60057187    -0.26480
C1036       C  0.57354881  0.02741343  0.58193842    -0.14560
C1037       C  0.59759119  0.01443604  0.59179623     0.36070
C1038       C  0.60628569  0.01955311  0.61905725    -0.25930
C1039       C  0.59036333  0.03564407  0.63700849    -0.15170
C1040       C  0.56488367  0.04608767  0.62807399     0.37160
N1041       N  0.54777363  0.06163929  0.64659600    -0.89420
H1042       H  0.53775822  0.05110549  0.59342088     0.18270
H1043       H  0.62557787  0.01104416  0.62636771     0.18260
N1044       N  0.61328534  0.99662356  0.57422729    -0.88450
H1045       H  0.52951303  0.06753904  0.63680495     0.35640
H1046       H  0.55816733  0.07982669  0.65170460     0.40740
H1047       H  0.60127555  0.97923375  0.57007583     0.40360
H1048       H  0.63089057  0.98954805  0.58443125     0.35250
C1049       C  0.16774335  0.02922094  0.56123017    -0.26480
C1050       C  0.18098546  0.04262308  0.53963175    -0.14560
C1051       C  0.16795126  0.04479614  0.51372774     0.36070
C1052       C  0.14106253  0.03457046  0.51035882    -0.25930
C1053       C  0.12714781  0.02272582  0.53260979    -0.15170
C1054       C  0.14109790  0.01888656  0.55790819     0.37160
N1055       N  0.12799880  0.00475243  0.58022942    -0.89420
H1056       H  0.17812737  0.02725900  0.58094521     0.18270
H1057       H  0.13044496  0.03720472  0.49085807     0.18260
N1058       N  0.18160744  0.05831144  0.49140153    -0.88450
H1059       H  0.14100666  0.00381609  0.59742070     0.35640
H1060       H  0.12463323  0.98439554  0.57384335     0.40740
H1061       H  0.18424093  0.07900177  0.49699618     0.40360
H1062       H  0.16918808  0.05817256  0.47374869     0.35250
C1063       C  0.05521072  0.87402190  0.55090337    -0.26480
C1064       C  0.08336913  0.87060856  0.55698413    -0.14560
C1065       C  0.10034956  0.89437984  0.55712177     0.36070
C1066       C  0.08880956  0.92032434  0.55259938    -0.25930
C1067       C  0.06099862  0.92373397  0.54606523    -0.15170
C1068       C  0.04392561  0.90035694  0.54554944     0.37160
N1069       N  0.01497005  0.90338182  0.54152890    -0.89420
H1070       H  0.04172130  0.85628444  0.55098706     0.18270
H1071       H  0.10190684  0.93825650  0.55432684     0.18260
N1072       N  0.12957619  0.89311397  0.56048295    -0.88450
H1073       H  0.00913379  0.88983257  0.52579688     0.35640
H1074       H  0.00524040  0.89682713  0.55947010     0.40740
H1075       H  0.13755946  0.87765404  0.54771573     0.40360
H1076       H  0.13447996  0.88939450  0.58104508     0.35250
C1077       C  0.02003601  0.13260714  0.54425515    -0.26480
C1078       C  0.99309925  0.13901180  0.53634074    -0.14560
C1079       C  0.97660413  0.11811249  0.52405209     0.36070
C1080       C  0.98717444  0.09121028  0.52116191    -0.25930
C1081       C  0.01362638  0.08451600  0.53058603    -0.15170
C1082       C  0.03060987  0.10583343  0.54149653     0.37160
N1083       N  0.05843855  0.10113492  0.55059080    -0.89420
H1084       H  0.03280146  0.14841913  0.55363406     0.18270
H1085       H  0.97418785  0.07517987  0.51250899     0.18260
N1086       N  0.94924489  0.12336227  0.51407336    -0.88450
H1087       H  0.07101246  0.11502176  0.54020660     0.35640
H1088       H  0.06553598  0.08166903  0.54480007     0.40740
H1089       H  0.94405973  0.14420725  0.51546077     0.40360
H1090       H  0.93563256  0.11251510  0.52655303     0.35250
C1091       C  0.92800894  0.96118325  0.57711657    -0.26480
C1092       C  0.91474582  0.94622624  0.55619870    -0.14560
C1093       C  0.92934117  0.93872680  0.53242700     0.36070
C1094       C  0.95668151  0.94755134  0.52948877    -0.25930
C1095       C  0.96913647  0.96525448  0.54890192    -0.15170
C1096       C  0.95490284  0.97090929  0.57367409     0.37160
N1097       N  0.96747556  0.98656738  0.59543431    -0.89420
H1098       H  0.91716534  0.96594201  0.59600610     0.18270
H1099       H  0.96723417  0.94271711  0.51071653     0.18260
N1100       N  0.91607471  0.92293640  0.51103251    -0.88450
H1101       H  0.96780980  0.97440482  0.61315335     0.35640
H1102       H  0.95518548  0.00384038  0.59936846     0.40740
H1103       H  0.91190412  0.90339362  0.51894833     0.40360
H1104       H  0.92926526  0.92003655  0.49434500     0.35250
C1105       C  0.49157804  0.05071295  0.08473215    -0.26480
C1106       C  0.50613627  0.02582364  0.08159611    -0.14560
C1107       C  0.51859272  0.01421200  0.10565162     0.36030
C1108       C  0.51391841  0.02640970  0.13149440    -0.25930
C1109       C  0.49817365  0.05040864  0.13446710    -0.15170
C1110       C  0.48836909  0.06360806  0.11042735     0.37160
N1111       N  0.47588766  0.09046618  0.11184998    -0.89420
H1112       H  0.48326864  0.06089293  0.06670018     0.18270
H1113       H  0.52250651  0.01650714  0.14954050     0.18260
N1114       N  0.53623613  0.99054445  0.10553792    -0.88450
H1115       H  0.46981696  0.09721046  0.09231229     0.35640
H1116       H  0.49089120  0.10426544  0.11885426     0.40740
H1117       H  0.53825069  0.98190643  0.08618603     0.40360
H1118       H  0.52747463  0.97558423  0.11814286     0.35250
C1119       C  0.49533827  0.97608392  0.87405317    -0.26480
C1120       C  0.50825040  0.95184649  0.86537560    -0.14560
C1121       C  0.52484534  0.93702055  0.88408185     0.36070
C1122       C  0.52723990  0.94625240  0.91160062    -0.25930
C1123       C  0.51262250  0.96942391  0.92097369    -0.15170
C1124       C  0.49741465  0.98519340  0.90147713     0.37160
N1125       N  0.48439310  0.01068370  0.90939419    -0.89420
H1126       H  0.48293601  0.98759575  0.85947085     0.18270
H1127       H  0.54038763  0.93518081  0.92567697     0.18260
N1128       N  0.53962191  0.91299303  0.87493393    -0.88450
H1129       H  0.47376734  0.01937352  0.89278111     0.35640
H1130       H  0.49997330  0.02456905  0.91468794     0.40740
H1131       H  0.52524087  0.89772896  0.87009187     0.40360
H1132       H  0.55175877  0.90512978  0.89091911     0.35250
C1133       C  0.51352229  0.08759116  0.94471310    -0.26480
C1134       C  0.51492344  0.08319327  0.97309878    -0.14560
C1135       C  0.51308284  0.10558940  0.99155976     0.36070
C1136       C  0.50902271  0.13223111  0.98108420    -0.25930
C1137       C  0.50567488  0.13644112  0.95264033    -0.15170
C1138       C  0.50906600  0.11405967  0.93419997     0.37160
N1139       N  0.50730444  0.11817065  0.90493536    -0.89420
H1140       H  0.51473105  0.07011774  0.93076247     0.18270
H1141       H  0.50654659  0.14938785  0.99525819     0.18260
N1142       N  0.51411090  0.10100174  0.02079000    -0.88450
H1143       H  0.51018804  0.09955344  0.89434153     0.35640
H1144       H  0.52344372  0.13113479  0.89936849     0.40740
H1145       H  0.49676211  0.08959820  0.02609836     0.40360
H1146       H  0.51285220  0.11970814  0.03154441     0.35250
C1147       C  0.49646932  0.89132188  0.06655667    -0.26480
C1148       C  0.48834993  0.87227880  0.04617491    -0.14560
C1149       C  0.48223617  0.88202930  0.01939546     0.36070
C1150       C  0.48546761  0.91013278  0.01373210    -0.25930
C1151       C  0.49529853  0.92896654  0.03366222    -0.15170
C1152       C  0.49927843  0.91946991  0.06084412     0.37160
N1153       N  0.50304949  0.93783285  0.08368331    -0.89420
H1154       H  0.49972529  0.88439015  0.08752455     0.18270
H1155       H  0.48084915  0.91723197  0.99306598     0.18260
N1156       N  0.47147047  0.86469114  0.99777241    -0.88450
H1157       H  0.52324184  0.93553640  0.09062210     0.35640
H1158       H  0.49950618  0.95820035  0.07791722     0.40740
H1159       H  0.46668227  0.84497182  0.00458042     0.40360
H1160       H  0.48662270  0.86270404  0.98271631     0.35250
C1161       C  0.57186866  0.05740114  0.91354509    -0.26480
C1162       C  0.57337519  0.02904505  0.91837589    -0.14560
C1163       C  0.57763457  0.01061128  0.89626811     0.36070
C1164       C  0.58071439  0.02107775  0.86952000    -0.25930
C1165       C  0.58075626  0.04963533  0.86484008    -0.15170
C1166       C  0.57540308  0.06793915  0.88692956     0.37160
N1167       N  0.57416138  0.09716831  0.88233600    -0.89420
H1168       H  0.56912888  0.07140856  0.93080236     0.18270
H1169       H  0.58487075  0.00701024  0.85261659     0.18260
N1170       N  0.57990491  0.98149658  0.90125693    -0.88450
H1171       H  0.57028718  0.10772207  0.90076263     0.35640
H1172       H  0.55745631  0.10095930  0.86925676     0.40740
H1173       H  0.59754987  0.97819005  0.91317652     0.40360
H1174       H  0.58275429  0.97072174  0.88276269     0.35250
C1175       C  0.58340336  0.93425287  0.11006840    -0.26480
C1176       C  0.59321576  0.95363933  0.12949750    -0.14560
C1177       C  0.60131442  0.98004036  0.12020617     0.36070
C1178       C  0.59915865  0.98621498  0.09208900    -0.25930
C1179       C  0.58899525  0.96698087  0.07277299    -0.15170
C1180       C  0.58112160  0.94065192  0.08184335     0.37160
N1181       N  0.57105830  0.92051290  0.06243389    -0.89420
H1182       H  0.57765080  0.91386972  0.11699245     0.18270
H1183       H  0.60509114  0.00661691  0.08533711     0.18260
N1184       N  0.61282185  0.00077837  0.13812909    -0.88450
H1185       H  0.56595279  0.90222161  0.07246701     0.35640
H1186       H  0.58707153  0.91573877  0.04894982     0.40740
H1187       H  0.61571798  0.99376312  0.15816298     0.40360
H1188       H  0.59886574  0.01718035  0.13902679     0.35250
C1189       C  0.57118884  0.87352948  0.96738652    -0.26480
C1190       C  0.59824039  0.86394377  0.96909073    -0.14560
C1191       C  0.61918618  0.88164642  0.97900409     0.36070
C1192       C  0.61282512  0.90922202  0.98472760    -0.25930
C1193       C  0.58595529  0.91929067  0.98171341    -0.15170
C1194       C  0.56481956  0.90104688  0.97368630     0.37160
N1195       N  0.53720126  0.91078093  0.97080866    -0.89420
H1196       H  0.55521030  0.85983979  0.95985123     0.18270
H1197       H  0.62906390  0.92287817  0.99171856     0.18260
N1198       N  0.64697848  0.87246728  0.98348208    -0.88450
H1199       H  0.52416234  0.89493350  0.96420684     0.35640
H1200       H  0.53096827  0.91641129  0.99046837     0.40740
H1201       H  0.64897640  0.85127640  0.98021312     0.40360
H1202       H  0.65161224  0.87564749  0.00432769     0.35250
C1203       C  0.57963719  0.09900449  0.01483205    -0.26480
C1204       C  0.57523350  0.07868587  0.03484900    -0.14560
C1205       C  0.57399779  0.08631452  0.06277811     0.36070
C1206       C  0.57775130  0.11419533  0.07017461    -0.25930
C1207       C  0.58276684  0.13449495  0.05016916    -0.15170
C1208       C  0.58348613  0.12677715  0.02211905     0.37160
N1209       N  0.58937669  0.14678088  0.00123415    -0.89420
H1210       H  0.58063510  0.09298901  0.99330036     0.18270
H1211       H  0.57737576  0.12004687  0.09174817     0.18260
N1212       N  0.57060477  0.06565277  0.08352466    -0.88450
H1213       H  0.58870991  0.13771087  0.98163695     0.35640
H1214       H  0.60956349  0.15348702  0.00432936     0.40740
H1215       H  0.55106002  0.05734565  0.08083707     0.40360
H1216       H  0.57090704  0.07461009  0.10317387     0.35250
C1217       C  0.52302474  0.40065739  0.98032333    -0.26480
C1218       C  0.52401436  0.41843241  0.95749909    -0.14560
C1219       C  0.51494199  0.40852078  0.93148659     0.36070
C1220       C  0.50488791  0.38154357  0.92919252    -0.25930
C1221       C  0.50329127  0.36422766  0.95213298    -0.15170
C1222       C  0.51295897  0.37363606  0.97792389     0.37160
N1223       N  0.51119431  0.35641166  0.00185394    -0.89420
H1224       H  0.52965838  0.40797022  0.00037478     0.18270
H1225       H  0.49756965  0.37415344  0.90935511     0.18260
N1226       N  0.51505137  0.42591915  0.90758964    -0.88450
H1227       H  0.51677035  0.36745806  0.01959137     0.35640
H1228       H  0.52591328  0.34085452  0.99975533     0.40740
H1229       H  0.49987425  0.44094831  0.91043099     0.40360
H1230       H  0.50930219  0.41481985  0.88994644     0.35250
C1231       C  0.59760906  0.58859296  0.97685834    -0.26480
C1232       C  0.57399529  0.58129964  0.96186672    -0.14560
C1233       C  0.55897735  0.60228644  0.94795064     0.36070
C1234       C  0.56805475  0.62948144  0.94926972    -0.25930
C1235       C  0.59229272  0.63635245  0.96318638    -0.15170
C1236       C  0.60694380  0.61586587  0.97776099     0.37160
N1237       N  0.63125596  0.62192987  0.99360425    -0.89420
H1238       H  0.60946087  0.57286847  0.98722375     0.18270
H1239       H  0.55694148  0.64514800  0.93785630     0.18260
N1240       N  0.53484310  0.59685156  0.93173535    -0.88450
H1241       H  0.62666892  0.61775552  0.01416227     0.35640
H1242       H  0.63615141  0.64285281  0.99306679     0.40740
H1243       H  0.52026889  0.58679818  0.94374180     0.40360
H1244       H  0.54015038  0.58443352  0.91491675     0.35250
C1245       C  0.42035595  0.55194591  0.97758517    -0.26480
C1246       C  0.40518771  0.53605172  0.95876077    -0.14560
C1247       C  0.41773438  0.51300376  0.94601500     0.36070
C1248       C  0.44544403  0.50731383  0.95160826    -0.25930
C1249       C  0.46123021  0.52398170  0.96947795    -0.15170
C1250       C  0.44812416  0.54644126  0.98314200     0.37160
N1251       N  0.46208223  0.56501225  0.00164402    -0.89420
H1252       H  0.41078205  0.56972784  0.98724237     0.18270
H1253       H  0.45500119  0.48998699  0.94114369     0.18260
N1254       N  0.40368837  0.49583199  0.92621383    -0.88450
H1255       H  0.46155070  0.58465014  0.99285776     0.35640
H1256       H  0.48264918  0.56006485  0.00397100     0.40740
H1257       H  0.38344428  0.50215122  0.92303294     0.40360
H1258       H  0.40278547  0.47593847  0.93434756     0.35250
C1259       C  0.65310434  0.44743036  0.94417269    -0.26480
C1260       C  0.67542073  0.46396088  0.95256872    -0.14560
C1261       C  0.66937027  0.49025860  0.96419316     0.36070
C1262       C  0.64174275  0.49965470  0.96520704    -0.25930
C1263       C  0.62002352  0.48353987  0.95486343    -0.15170
C1264       C  0.62605439  0.45700946  0.94419019     0.37160
N1265       N  0.60542332  0.43905835  0.93266441    -0.89420
H1266       H  0.65635208  0.42674159  0.93650483     0.18270
H1267       H  0.63728890  0.52021522  0.97285280     0.18260
N1268       N  0.69101627  0.50776138  0.97417630    -0.88450
H1269       H  0.60895300  0.43738911  0.91149280     0.35640
H1270       H  0.58564189  0.44677008  0.93519390     0.40740
H1271       H  0.69913721  0.49846900  0.99180741     0.40360
H1272       H  0.68316407  0.52681209  0.98062199     0.35250
C1273       C  0.16471401  0.56191299  0.96782044    -0.26480
C1274       C  0.17529510  0.54162296  0.95028697    -0.14560
C1275       C  0.15852276  0.51952612  0.94175008     0.36070
C1276       C  0.13106144  0.51840915  0.95069998    -0.25930
C1277       C  0.12005232  0.53913203  0.96783879    -0.15170
C1278       C  0.13747902  0.56085416  0.97702492     0.37160
N1279       N  0.12769582  0.58181331  0.99567872    -0.89420
H1280       H  0.17782321  0.57886550  0.97418624     0.18270
H1281       H  0.11817590  0.50142782  0.94401065     0.18260
N1282       N  0.16935660  0.49853071  0.92380912    -0.88450
H1283       H  0.14275549  0.59677467  0.99925692     0.35640
H1284       H  0.12419357  0.57243905  0.01467726     0.40740
H1285       H  0.17394502  0.50780299  0.90500174     0.40360
H1286       H  0.15444739  0.48356557  0.91962611     0.35250
C1287       C  0.09791626  0.51853169  0.11974933    -0.26480
C1288       C  0.09763391  0.54499865  0.13143937    -0.14560
C1289       C  0.08823103  0.56751962  0.11591463     0.36070
C1290       C  0.07872557  0.56306054  0.08905644    -0.25930
C1291       C  0.07819613  0.53648444  0.07712558    -0.15170
C1292       C  0.08859554  0.51398199  0.09256696     0.37160
N1293       N  0.08979302  0.48674587  0.08085048    -0.89420
H1294       H  0.10567929  0.50143649  0.13181048     0.18270
H1295       H  0.07123282  0.58066086  0.07759446     0.18260
N1296       N  0.08800908  0.59484213  0.12766748    -0.88450
H1297       H  0.10018596  0.47329696  0.09407787     0.35640
H1298       H  0.06971491  0.47945807  0.07958436     0.40740
H1299       H  0.07409630  0.59488124  0.14399467     0.40360
H1300       H  0.08071300  0.60922396  0.11340427     0.35250
C1301       C  0.01343428  0.53257756  0.87257450    -0.26480
C1302       C  0.01732898  0.55963347  0.86373041    -0.14560
C1303       C  0.02960962  0.57916220  0.88165121     0.36070
C1304       C  0.03651995  0.57127269  0.90851482    -0.25930
C1305       C  0.03114334  0.54455465  0.91805155    -0.15170
C1306       C  0.01928706  0.52507001  0.89980716     0.37160
N1307       N  0.01085341  0.49861028  0.90943667    -0.89420
H1308       H  0.00357414  0.51786540  0.85883539     0.18270
H1309       H  0.04545678  0.58645888  0.92236921     0.18260
N1310       N  0.03496719  0.60712564  0.87355320    -0.88450
H1311       H  0.00326579  0.48642433  0.89326383     0.35640
H1312       H  0.99444945  0.50218603  0.92254187     0.40740
H1313       H  0.02993058  0.61042391  0.85291074     0.40360
H1314       H  0.05615397  0.61028554  0.87514667     0.35250
C1315       C  0.92848395  0.54990401  0.05944670    -0.26480
C1316       C  0.90607293  0.54269286  0.04258234    -0.14560
C1317       C  0.91149848  0.53034104  0.01662320     0.36070
C1318       C  0.93869921  0.52608786  0.00838254    -0.25930
C1319       C  0.96093513  0.53385820  0.02502304    -0.15170
C1320       C  0.95554842  0.54677686  0.05076556     0.37160
N1321       N  0.97658280  0.55762069  0.06870327    -0.89420
H1322       H  0.92518744  0.55897102  0.07959138     0.18270
H1323       H  0.94240980  0.51828319  0.98806121     0.18260
N1324       N  0.89024170  0.52290605  0.99755376    -0.88450
H1325       H  0.97400194  0.57901503  0.06978159     0.35640
H1326       H  0.99633174  0.55413490  0.06148339     0.40740
H1327       H  0.87751338  0.53994997  0.99415271     0.40360
H1328       H  0.87909557  0.50653876  0.00568239     0.35250
C1329       C  0.95219500  0.47810799  0.95589019    -0.26480
C1330       C  0.96545646  0.45640383  0.96973194    -0.14560
C1331       C  0.95019703  0.43189657  0.97460625     0.36070
C1332       C  0.92271839  0.43018984  0.96613595    -0.25930
C1333       C  0.90957507  0.45230122  0.95313908    -0.15170
C1334       C  0.92447452  0.47639472  0.94761451     0.37160
N1335       N  0.91169885  0.49864361  0.93282995    -0.89420
H1336       H  0.96305918  0.49710079  0.95250385     0.18270
H1337       H  0.91147452  0.41127351  0.96967310     0.18260
N1338       N  0.96178947  0.40816259  0.98775914    -0.88450
H1339       H  0.92554054  0.51486412  0.93022121     0.35640
H1340       H  0.89567830  0.50632814  0.94488081     0.40740
H1341       H  0.96749228  0.41336611  0.00791568     0.40360
H1342       H  0.97893576  0.40157522  0.97662691     0.35250
C1343       C  0.99738512  0.48081505  0.12594885    -0.26480
C1344       C  0.99326660  0.45381786  0.13495978    -0.14560
C1345       C  0.99818745  0.43164235  0.11679627     0.36070
C1346       C  0.00712481  0.43700012  0.08997633    -0.25930
C1347       C  0.01180756  0.46408715  0.08064534    -0.15170
C1348       C  0.00641876  0.48620898  0.09897826     0.37160
N1349       N  0.01066167  0.51402385  0.09065211    -0.89420
H1350       H  0.99333284  0.49778273  0.13999703     0.18270
H1351       H  0.01077284  0.41960503  0.07636661     0.18260
N1352       N  0.99462535  0.40367404  0.12581806    -0.88450
H1353       H  0.00503407  0.52771937  0.10637169     0.35640
H1354       H  0.03167306  0.51630135  0.08851647     0.40740
H1355       H  0.00907329  0.39999408  0.14140152     0.40360
H1356       H  0.99895291  0.38972974  0.10990082     0.35250
C1357       C  0.06627729  0.42620323  0.87969319    -0.26480
C1358       C  0.07616565  0.44875836  0.86474746    -0.14560
C1359       C  0.07646398  0.47506502  0.87719075     0.36070
C1360       C  0.06748020  0.47811546  0.90459315    -0.25930
C1361       C  0.05694885  0.45572385  0.91946585    -0.15170
C1362       C  0.05635272  0.42944339  0.90673432     0.37160
N1363       N  0.04605416  0.40604698  0.92147662    -0.89420
H1364       H  0.06643310  0.40591072  0.87020765     0.18270
H1365       H  0.06947945  0.49797321  0.91450619     0.18260
N1366       N  0.08678248  0.49837627  0.86233919    -0.88450
H1367       H  0.04724909  0.38819610  0.90934264     0.35640
H1368       H  0.02520579  0.40956036  0.92521661     0.40740
H1369       H  0.10770324  0.49502139  0.85888516     0.40360
H1370       H  0.08527630  0.51632992  0.87429333     0.35250
C1371       C  0.17241246  0.48178035  0.03462688    -0.26480
C1372       C  0.18210150  0.45457647  0.03590451    -0.14560
C1373       C  0.16585820  0.43293529  0.02549542     0.36070
C1374       C  0.13928172  0.43861664  0.01603127    -0.25930
C1375       C  0.12831405  0.46547444  0.01702738    -0.15170
C1376       C  0.14544866  0.48750270  0.02557058     0.37160
N1377       N  0.13521007  0.51525684  0.02643304    -0.89420
H1378       H  0.18526872  0.49834767  0.04237906     0.18270
H1379       H  0.12669804  0.42166792  0.00867374     0.18260
N1380       N  0.17628983  0.40515674  0.02508743    -0.88450
H1381       H  0.15076003  0.52894625  0.03233429     0.35640
H1382       H  0.12046243  0.51622480  0.04188314     0.40740
H1383       H  0.19298914  0.40464951  0.01164757     0.40360
H1384       H  0.16163910  0.39155403  0.01700543     0.35250
C1385       C  0.42807552  0.43590836  0.03635688    -0.26480
C1386       C  0.40879660  0.45474523  0.04694855    -0.14560
C1387       C  0.41683723  0.48233885  0.05234590     0.36070
C1388       C  0.44394466  0.49006416  0.04739720    -0.25930
C1389       C  0.46330335  0.47104212  0.03756784    -0.15170
C1390       C  0.45532555  0.44382551  0.03150677     0.37160
N1391       N  0.47500934  0.42425549  0.02119511    -0.89420
H1392       H  0.42189406  0.41480952  0.03225079     0.18270
H1393       H  0.45012470  0.51111526  0.05183125     0.18260
N1394       N  0.39896815  0.50265862  0.06443664    -0.88450
H1395       H  0.46575701  0.40509796  0.01771650     0.35640
H1396       H  0.48987864  0.42129567  0.03653739     0.40740
H1397       H  0.38065653  0.49430045  0.07148294     0.40360
H1398       H  0.39418868  0.51712641  0.04924531     0.35250
C1399       C  0.52394781  0.62676908  0.06296883    -0.26480
C1400       C  0.51210824  0.64171285  0.04136080    -0.14560
C1401       C  0.51148516  0.63016973  0.01464606     0.36070
C1402       C  0.52073635  0.60286047  0.01062367    -0.25930
C1403       C  0.53045509  0.58697760  0.03277283    -0.15170
C1404       C  0.53369167  0.59981365  0.05890393     0.37160
N1405       N  0.54626394  0.58525005  0.08144370    -0.89420
H1406       H  0.52497289  0.63600869  0.08334367     0.18270
H1407       H  0.51850283  0.59334193  0.99058905     0.18260
N1408       N  0.50012594  0.64559421  0.99208703    -0.88450
H1409       H  0.54676354  0.59752769  0.09922660     0.35640
H1410       H  0.56670240  0.58140364  0.07611357     0.40740
H1411       H  0.47924582  0.64864759  0.99601517     0.40360
H1412       H  0.50130616  0.63416907  0.97378775     0.35250
C1413       C  0.67383196  0.50584257  0.04325909    -0.26480
C1414       C  0.67774602  0.53446824  0.04606139    -0.14560
C1415       C  0.65577773  0.55246657  0.03981599     0.36070
C1416       C  0.63011573  0.54162672  0.03347720    -0.25930
C1417       C  0.62572396  0.51315390  0.03197626    -0.15170
C1418       C  0.64802781  0.49486556  0.03609098     0.37160
N1419       N  0.64511738  0.46540001  0.03468115    -0.89420
H1420       H  0.69071249  0.49186630  0.04750847     0.18270
H1421       H  0.61300960  0.55570698  0.03073346     0.18260
N1422       N  0.65888567  0.58181473  0.03906310    -0.88450
H1423       H  0.65753038  0.45828446  0.01862301     0.35640
H1424       H  0.62509340  0.45968674  0.02961632     0.40740
H1425       H  0.67564496  0.58664565  0.02663435     0.40360
H1426       H  0.66206228  0.58947945  0.05891451     0.35250
C1427       C  0.57041114  0.41052359  0.06319396    -0.26480
C1428       C  0.57452959  0.42299209  0.03731228    -0.14560
C1429       C  0.58698836  0.40654370  0.01610321     0.36070
C1430       C  0.59367541  0.37888217  0.02137107    -0.25930
C1431       C  0.58942945  0.36710088  0.04712388    -0.15170
C1432       C  0.57796456  0.38321072  0.06832665     0.37160
N1433       N  0.57350194  0.37224311  0.09527581    -0.89420
H1434       H  0.56123710  0.42208708  0.07995984     0.18270
H1435       H  0.60320605  0.36663005  0.00527136     0.18260
N1436       N  0.59386166  0.41628967  0.98916177    -0.88450
H1437       H  0.59241408  0.36623155  0.10359835     0.35640
H1438       H  0.56104742  0.35479086  0.09335711     0.40740
H1439       H  0.59073904  0.43714932  0.98646134     0.40360
H1440       H  0.58155944  0.40586652  0.97480516     0.35250
C1441       C  0.01349848  0.41590537  0.54446418    -0.26480
C1442       C  0.99586871  0.42513654  0.52344517    -0.14560
C1443       C  0.97472673  0.40765036  0.51392183     0.36070
C1444       C  0.97267833  0.38069181  0.52450437    -0.25930
C1445       C  0.99107978  0.37105807  0.54469850    -0.15170
C1446       C  0.01179459  0.38897911  0.55483456     0.37160
N1447       N  0.03165425  0.38059332  0.57521295    -0.89420
H1448       H  0.02960879  0.42929829  0.55198652     0.18270
H1449       H  0.95644043  0.36719577  0.51722010     0.18260
N1450       N  0.95564815  0.41721585  0.49337738    -0.88450
H1451       H  0.05104563  0.38151064  0.56611024     0.35640
H1452       H  0.02884674  0.36014810  0.58112957     0.40740
H1453       H  0.94418788  0.43323805  0.50215042     0.40360
H1454       H  0.94165879  0.40166453  0.48821606     0.35250
C1455       C  0.99513593  0.60107937  0.48467901    -0.26480
C1456       C  0.01245641  0.58314097  0.46985233    -0.14560
C1457       C  0.02696404  0.59345882  0.44706211     0.36070
C1458       C  0.02254088  0.62093540  0.43878644    -0.25930
C1459       C  0.00432316  0.63827264  0.45304478    -0.15170
C1460       C  0.99067678  0.62829448  0.47653735     0.37160
N1461       N  0.97159177  0.64470779  0.49219741    -0.89420
H1462       H  0.98425375  0.59365356  0.50258709     0.18270
H1463       H  0.03277304  0.62868893  0.42064853     0.18260
N1464       N  0.04508203  0.57594926  0.43164748    -0.88450
H1465       H  0.95221055  0.63565060  0.49012988     0.35640
H1466       H  0.96981285  0.66473084  0.48468187     0.40740
H1467       H  0.06144851  0.57033043  0.44438232     0.40360
H1468       H  0.05357980  0.58662528  0.41511110     0.35250
C1469       C  0.01744632  0.44530891  0.38265911    -0.26480
C1470       C  0.99711239  0.45791048  0.36657083    -0.14560
C1471       C  0.97916769  0.47722880  0.37886796     0.36070
C1472       C  0.98122931  0.48235351  0.40721101    -0.25930
C1473       C  0.00142245  0.46957991  0.42377239    -0.15170
C1474       C  0.02014207  0.45117677  0.41082021     0.37160
N1475       N  0.04155290  0.43733370  0.42551257    -0.89420
H1476       H  0.03098924  0.43016144  0.37334669     0.18270
H1477       H  0.96704381  0.49708933  0.41616093     0.18260
N1478       N  0.95818652  0.49154225  0.36356609    -0.88450
H1479       H  0.03247574  0.42547362  0.44072205     0.35640
H1480       H  0.05471442  0.45191894  0.43435762     0.40740
H1481       H  0.95844800  0.48635386  0.34269014     0.40360
H1482       H  0.96259790  0.51261874  0.36473829     0.35250
C1483       C  0.98153234  0.51834399  0.59441929    -0.26480
C1484       C  0.00873753  0.52025072  0.58489635    -0.14560
C1485       C  0.02973035  0.52781605  0.60411253     0.36070
C1486       C  0.02230232  0.53535462  0.63099700    -0.25930
C1487       C  0.99483094  0.53565437  0.63927831    -0.15170
C1488       C  0.97432109  0.52588072  0.62113402     0.37160
N1489       N  0.94606118  0.52296438  0.62905082    -0.89420
H1490       H  0.96528296  0.51134550  0.58070885     0.18270
H1491       H  0.03809143  0.54257834  0.64512862     0.18260
N1492       N  0.05832060  0.52995887  0.59743665    -0.88450
H1493       H  0.93465790  0.53799702  0.61865936     0.35640
H1494       H  0.94327918  0.52599686  0.65014586     0.40740
H1495       H  0.06251920  0.52500119  0.57711121     0.40360
H1496       H  0.06925901  0.51616676  0.60982217     0.35250
C1497       C  0.44653703  0.94695439  0.48599026    -0.26480
C1498       C  0.46450108  0.96266479  0.46971206    -0.14560
C1499       C  0.45346255  0.97724198  0.44698808     0.36070
C1500       C  0.42562059  0.97373634  0.43976941    -0.25930
C1501       C  0.40814098  0.95728054  0.45552229    -0.15170
C1502       C  0.41850351  0.94428204  0.47926347     0.37160
N1503       N  0.40076881  0.92768530  0.49593156    -0.89420
H1504       H  0.45443697  0.93642043  0.50400173     0.18270
H1505       H  0.41746746  0.98377620  0.42157146     0.18260
N1506       N  0.47043653  0.99497393  0.43080993    -0.88450
H1507       H  0.41152178  0.91976988  0.51285011     0.35640
H1508       H  0.39454908  0.91074179  0.48403635     0.40740
H1509       H  0.47650827  0.01155752  0.44319927     0.40360
H1510       H  0.45929825  0.00340904  0.41440039     0.35250
C1511       C  0.63791193  0.93431338  0.51905344    -0.26480
C1512       C  0.62900527  0.96179192  0.51586919    -0.14560
C1513       C  0.64853402  0.98315435  0.51996202     0.36070
C1514       C  0.67544588  0.97653438  0.52890839    -0.25930
C1515       C  0.68325405  0.94919382  0.53409307    -0.15170
C1516       C  0.66442820  0.92785806  0.52808806     0.37160
N1517       N  0.67174101  0.89931220  0.53043621    -0.89420
H1518       H  0.62390509  0.91738737  0.51511296     0.18270
H1519       H  0.69006298  0.99289828  0.53299652     0.18260
N1520       N  0.64126930  0.01143761  0.51545143    -0.88450
H1521       H  0.67585365  0.89474287  0.55102297     0.35640
H1522       H  0.68943181  0.89571035  0.51884088     0.40740
H1523       H  0.62622548  0.01726641  0.52952106     0.40360
H1524       H  0.65810327  0.02431378  0.51916608     0.35250
C1525       C  0.55306658  0.95491346  0.36863781    -0.26480
C1526       C  0.58098374  0.94831616  0.36492481    -0.14560
C1527       C  0.59816535  0.94706735  0.38867575     0.36070
C1528       C  0.58684475  0.95005220  0.41487036    -0.25930
C1529       C  0.55910432  0.95646264  0.41867336    -0.15170
C1530       C  0.54207949  0.95946906  0.39522503     0.37160
N1531       N  0.51380921  0.96691212  0.39839266    -0.89420
H1532       H  0.53972726  0.95643067  0.35077047     0.18270
H1533       H  0.60022726  0.94802021  0.43266330     0.18260
N1534       N  0.62745813  0.94470404  0.38719930    -0.88450
H1535       H  0.50371628  0.96668368  0.37931815     0.35640
H1536       H  0.51377349  0.98743807  0.40493587     0.40740
H1537       H  0.63491296  0.95808896  0.37219786     0.40360
H1538       H  0.63297180  0.92438118  0.38285988     0.35250
C1539       C  0.53081461  0.97254350  0.60136817    -0.26480
C1540       C  0.51256137  0.96878006  0.57926808    -0.14560
C1541       C  0.48516651  0.96153074  0.58445507     0.36070
C1542       C  0.47655016  0.95805792  0.61183173    -0.25930
C1543       C  0.49499396  0.96080848  0.63419771    -0.15170
C1544       C  0.52245698  0.96861431  0.62878848     0.37160
N1545       N  0.54220571  0.97107441  0.65078001    -0.89420
H1546       H  0.55212884  0.97693207  0.59709568     0.18270
H1547       H  0.45544346  0.95229181  0.61560562     0.18260
N1548       N  0.46669888  0.95604360  0.56185207    -0.88450
H1549       H  0.56118780  0.97759984  0.64327762     0.35640
H1550       H  0.54535057  0.95136779  0.65885369     0.40740
H1551       H  0.46432934  0.97420693  0.55063862     0.40360
H1552       H  0.44723220  0.95079445  0.56910012     0.35250
C1553       C  0.07360086  0.58938994  0.55929757    -0.26480
C1554       C  0.07309427  0.58403893  0.53094695    -0.14560
C1555       C  0.07734703  0.60609881  0.51254905     0.36070
C1556       C  0.08147218  0.63295265  0.52286952    -0.25930
C1557       C  0.08334340  0.63799183  0.55125761    -0.15170
C1558       C  0.07896255  0.61600260  0.56971723     0.37160
N1559       N  0.08037444  0.62064760  0.59897414    -0.89420
H1560       H  0.07123955  0.57261244  0.57342145     0.18270
H1561       H  0.08512364  0.64968247  0.50865974     0.18260
N1562       N  0.07841977  0.60105857  0.48342601    -0.88450
H1563       H  0.07700813  0.60230584  0.60965248     0.35640
H1564       H  0.06433756  0.63402049  0.60420681     0.40740
H1565       H  0.09608408  0.58946343  0.47942687     0.40360
H1566       H  0.08060842  0.61953979  0.47267264     0.35250
C1567       C  0.11644129  0.41608987  0.47259292    -0.26480
C1568       C  0.09032695  0.42146006  0.48390490    -0.14560
C1569       C  0.07199352  0.39900011  0.48631686     0.36070
C1570       C  0.07940245  0.37274584  0.47645459    -0.25930
C1571       C  0.10465665  0.36802129  0.46382722    -0.15170
C1572       C  0.12376726  0.38989656  0.46266033     0.37160
N1573       N  0.15109252  0.38608408  0.45253797    -0.89420
H1574       H  0.13142743  0.43248510  0.47107593     0.18270
H1575       H  0.06475729  0.35599692  0.47766429     0.18260
N1576       N  0.04544030  0.40266305  0.49785474    -0.88450
H1577       H  0.15028848  0.38177230  0.43148813     0.35640
H1578       H  0.16012222  0.36946928  0.46284561     0.40740
H1579       H  0.03344925  0.41234521  0.48301512     0.40360
H1580       H  0.03604041  0.38357549  0.50102717     0.35250
C1581       C  0.06276193  0.52985468  0.36746469    -0.26480
C1582       C  0.09043115  0.52999296  0.35964600    -0.14560
C1583       C  0.11046393  0.51990148  0.37814163     0.36070
C1584       C  0.10273605  0.51305348  0.40489138    -0.25930
C1585       C  0.07548307  0.51581061  0.41416456    -0.15170
C1586       C  0.05486618  0.52335126  0.39454411     0.37160
N1587       N  0.02621079  0.52605832  0.40105113    -0.89420
H1588       H  0.04727998  0.53695571  0.35299236     0.18270
H1589       H  0.11869797  0.50613192  0.41892753     0.18260
N1590       N  0.13888357  0.51661907  0.37073763    -0.88450
H1591       H  0.01959654  0.54566336  0.39505254     0.35640
H1592       H  0.02273140  0.52520264  0.42209525     0.40740
H1593       H  0.14203543  0.52044732  0.34987425     0.40360
H1594       H  0.14400495  0.49585235  0.37346858     0.35250
C1595       C  0.06030126  0.46241872  0.59144077    -0.26480
C1596       C  0.08358357  0.46773990  0.57532876    -0.14560
C1597       C  0.10989085  0.46479774  0.58733787     0.36070
C1598       C  0.11226803  0.45721799  0.61514238    -0.25930
C1599       C  0.08903327  0.45252023  0.63147654    -0.15170
C1600       C  0.06259851  0.45505944  0.61933845     0.37160
N1601       N  0.03771724  0.44965481  0.63413945    -0.89420
H1602       H  0.03999181  0.46503539  0.58264691     0.18270
H1603       H  0.13253735  0.45492425  0.62421163     0.18260
N1604       N  0.13415104  0.46929368  0.57123228    -0.88450
H1605       H  0.02685780  0.46822790  0.63567831     0.35640
H1606       H  0.04157741  0.44295682  0.65414853     0.40740
H1607       H  0.13459295  0.45417829  0.55577836     0.40360
H1608       H  0.15185672  0.46648269  0.58319569     0.35250
loop_ 
_geom_bond_atom_site_label_1 
_geom_bond_atom_site_label_2 
_geom_bond_distance 
_geom_bond_site_symmetry_2 
_ccdc_geom_bond_type 
O1           Cu9   2.442       .  S
O1           C11   1.284       .  A
O2           Cu9   2.655       .  S
O2           C12   1.311       .  A
O3           Cu9   2.445       .  S
O3           C13   1.329       .  A
O4           Cu9   2.681       .  S
O4           C14   1.290       .  A
O5          Cu10   1.956       .  S
O5           C14   1.271       .  A
O6          Cu10   2.006       .  S
O6           C13   1.274       .  A
O7          Cu10   1.983       .  S
O7           C12   1.261       .  A
O8          Cu10   1.928       .  S
O8           C11   1.255       .  A
Cu9         Cu10   3.406       .  S
C11        C1554   1.483       .  S
C12        C1568   1.505       .  S
C13        C1596   1.487       .  S
C14        C1585   1.497       .  S
O15         Cu23   1.935       .  S
O15          C25   1.255       .  A
O16         Cu23   1.985       .  S
O16          C26   1.261       .  A
O17         Cu23   1.968       .  S
O17          C27   1.271       .  A
O18         Cu23   2.008       .  S
O18          C28   1.272       .  A
O19         Cu24   2.437   1_565  S
O19          C28   1.332       .  A
O20         Cu24   2.743   1_565  S
O20          C27   1.290       .  A
O21         Cu24   2.571   1_565  S
O21          C26   1.314       .  A
O22         Cu24   2.430   1_565  S
O22          C25   1.277       .  A
Cu23        Cu24   3.420   1_565  S
C25        C1540   1.472       .  S
C26        C1529   1.488       .  S
C27        C1512   1.502       .  S
C28        C1498   1.495       .  S
O29         Cu37   1.907       .  S
O29          C39   1.256   1_655  A
O30         Cu37   1.963       .  S
O30          C40   1.253       .  A
O31         Cu37   1.955       .  S
O31          C41   1.271   1_655  A
O32         Cu37   1.995       .  S
O32          C42   1.273   1_655  A
O33         Cu38   2.422       .  S
O33          C42   1.328       .  A
O34         Cu38   2.690       .  S
O34          C41   1.286       .  A
O35         Cu38   2.600       .  S
O35          C40   1.306   1_455  A
O36         Cu38   2.439       .  S
O36          C39   1.283       .  A
Cu37        Cu38   3.450   1_655  S
C39        C1456   1.485       .  S
C40        C1442   1.483       .  S
C41        C1484   1.488       .  S
C42        C1473   1.496       .  S
O43         Cu51   2.011       .  S
O43          C53   1.270       .  A
O44         Cu51   1.931       .  S
O44          C54   1.261       .  A
O45         Cu51   1.993       .  S
O45          C55   1.266       .  A
O46         Cu51   1.946       .  S
O46          C56   1.262       .  A
O47         Cu52   2.653   1_554  S
O47          C56   1.284       .  A
O48         Cu52   2.487   1_554  S
O48          C55   1.313       .  A
O49         Cu52   2.318   1_554  S
O49          C54   1.278       .  A
O50         Cu52   2.706   1_554  S
O50          C53   1.327       .  A
Cu51        Cu52   3.296   1_554  S
C53        C1417   1.466       .  S
C54        C1389   1.465       .  S
C55        C1428   1.505       .  S
C56        C1403   1.491       .  S
N57          N58   1.323       .  A
N57          C61   1.347       .  A
N57         Cu65   2.068       .  S
N58          C59   1.341       .  A
N58         Cu64   2.074       .  S
C59          C60   1.381       .  A
C59          H62   1.082       .  S
C60        C1372   1.471       .  S
C60          C61   1.381       .  A
C61          H63   1.082       .  S
Cu64         N67   2.073       .  S
Cu65         N75   2.068       .  S
Cu66         N68   2.060       .  S
Cu66         N74   2.060       .  S
N67          N68   1.320       .  A
N67          C71   1.345       .  A
N68          C69   1.343       .  A
C69          C70   1.381       .  A
C69          H72   1.082       .  S
C70         C933   1.468       .  S
C70          C71   1.384       .  A
C71          H73   1.082       .  S
N74          N75   1.322       .  A
N74          C78   1.341       .  A
N75          C76   1.345       .  A
C76          C77   1.384       .  A
C76          H79   1.082       .  S
C77        C1386   1.471       .  S
C77          C78   1.378       .  A
C78          H80   1.082       .  S
N81          N82   1.323       .  A
N81          C85   1.355       .  A
N81         Cu89   2.116       .  S
N82          C83   1.339       .  A
N82         Cu88   2.054       .  S
C83          C84   1.376       .  A
C83          H86   1.082       .  S
C84        C1599   1.485       .  S
C84          C85   1.395       .  A
C85          H87   1.082       .  S
Cu88         N91   2.053       .  S
Cu89         N99   2.117       .  S
Cu90         N92   2.068       .  S
Cu90         N98   2.070       .  S
N91          N92   1.319       .  A
N91          C95   1.342       .  A
N92          C93   1.345       .  A
C93          C94   1.384       .  A
C93          H96   1.082       .  S
C94         C861   1.466       .  S
C94          C95   1.381       .  A
C95          H97   1.082       .  S
N98          N99   1.326       .  A
N98         C102   1.343       .  A
N99         C100   1.354       .  A
C100        C101   1.391       .  A
C100        H103   1.082       .  S
C101       C1358   1.483       .  S
C101        C102   1.378       .  A
C102        H104   1.082       .  S
N105        N106   1.325       .  A
N105        C109   1.351       .  A
N105       Cu113   2.096       .  S
N106        C107   1.339       .  A
N106       Cu112   2.059       .  S
C107        C108   1.374       .  A
C107        H110   1.082       .  S
C108       C1470   1.470       .  S
C108        C109   1.387       .  A
C109        H111   1.082   1_655  S
Cu112       N115   2.058       .  S
Cu113       N123   2.095       .  S
Cu114       N116   2.049       .  S
Cu114       N122   2.050       .  S
N115        N116   1.318       .  A
N115        C119   1.344       .  A
N116        C117   1.341       .  A
C117        C118   1.380       .  A
C117        H120   1.082       .  S
C118        C758   1.462       .  S
C118        C119   1.383       .  A
C119        H121   1.082       .  S
N122        N123   1.323       .  A
N122        C126   1.339       .  A
N123        C124   1.350       .  A
C124        C125   1.388       .  A
C124        H127   1.082   1_655  S
C125       C1344   1.476       .  S
C125        C126   1.376       .  A
C126        H128   1.082       .  S
O129       Cu137   2.582       .  S
O129        C139   1.311       .  A
O130       Cu137   2.464   1_554  S
O130        C140   1.288       .  A
O131       Cu137   2.722   1_554  S
O131        C141   1.284       .  A
O132       Cu137   2.441       .  S
O132        C142   1.334   1_455  A
O133       Cu138   1.990   1_556  S
O133        C142   1.266   1_455  A
O134       Cu138   1.942       .  S
O134        C141   1.266       .  A
O135       Cu138   1.901       .  S
O135        C140   1.256       .  A
O136       Cu138   1.974   1_556  S
O136        C139   1.258       .  A
Cu137      Cu138   3.442   1_556  S
C139       C1361   1.492       .  S
C140       C1347   1.500       .  S
C141       C1375   1.485       .  S
C142       C1330   1.498       .  S
N143        N144   1.322       .  A
N143        C147   1.346       .  A
N143       Cu151   2.067       .  S
N144        C145   1.340       .  A
N144       Cu150   2.072       .  S
C145        C146   1.383       .  A
C145        H148   1.080       .  S
C146       C1414   1.477       .  S
C146        C147   1.383       .  A
C147        H149   1.082       .  S
Cu150       N153   2.070       .  S
Cu151       N161   2.066       .  S
Cu152       N154   2.057       .  S
Cu152       N160   2.058       .  S
N153        N154   1.320       .  A
N153        C157   1.345       .  A
N154        C155   1.343       .  A
C155        C156   1.380       .  A
C155        H158   1.082       .  S
C156        C782   1.465       .  S
C156        C157   1.383       .  A
C157        H159   1.082       .  S
N160        N161   1.319       .  A
N160        C164   1.337       .  A
N161        C162   1.345       .  A
C162        C163   1.391       .  A
C162        H165   1.077       .  S
C163       C1316   1.490       .  S
C163        C164   1.387       .  A
C164        H166   1.081       .  S
N167        N168   1.322       .  A
N167        C171   1.344       .  A
N167       Cu175   2.059       .  S
N168        C169   1.341       .  A
N168       Cu174   2.065       .  S
C169        C170   1.381       .  A
C169        H172   1.082       .  S
C170       C1487   1.467       .  S
C170        C171   1.379       .  A
C171        H173   1.082   1_655  S
Cu174       N177   2.064       .  S
Cu175       N185   2.059       .  S
Cu176       N178   2.065       .  S
Cu176       N184   2.067       .  S
N177        N178   1.321       .  A
N177        C181   1.343       .  A
N178        C179   1.344       .  A
C179        C180   1.381       .  A
C179        H182   1.082       .  S
C180        C892   1.464       .  S
C180        C181   1.381       .  A
C181        H183   1.082       .  S
N184        N185   1.322       .  A
N184        C188   1.342       .  A
N185        C186   1.344   1_655  A
C186        C187   1.379       .  A
C186        H189   1.082       .  S
C187       C1302   1.466       .  S
C187        C188   1.380   1_455  A
C188        H190   1.082       .  S
N191        N192   1.321       .  A
N191        C195   1.348       .  A
N191       Cu199   2.080       .  S
N192        C193   1.339       .  A
N192       Cu198   2.047       .  S
C193        C194   1.376       .  A
C193        H196   1.082       .  S
C194       C1288   1.468       .  S
C194        C195   1.385       .  A
C195        H197   1.082       .  S
Cu198       N201   2.046       .  S
Cu199       N209   2.081       .  S
Cu200       N202   2.086       .  S
Cu200       N208   2.089       .  S
N201        N202   1.320       .  A
N201        C205   1.340       .  A
N202        C203   1.349       .  A
C203        C204   1.388       .  A
C203        H206   1.082       .  S
C204        C796   1.468       .  S
C204        C205   1.377       .  A
C205        H207   1.082       .  S
N208        N209   1.326       .  A
N208        C212   1.344       .  A
N209        C210   1.349       .  A
C210        C211   1.382       .  A
C210        H213   1.082       .  S
C211       C1582   1.478       .  S
C211        C212   1.383       .  A
C212        H214   1.082       .  S
O215       Cu223   1.954   1_556  S
O215        C225   1.254       .  A
O216       Cu223   1.905       .  S
O216        C226   1.257       .  A
O217       Cu223   1.987   1_556  S
O217        C227   1.267       .  A
O218       Cu223   1.933       .  S
O218        C228   1.263   1_455  A
O219       Cu224   2.723   1_654  S
O219        C228   1.292       .  A
O220       Cu224   2.426       .  S
O220        C227   1.332       .  A
O221       Cu224   2.428   1_554  S
O221        C226   1.281       .  A
O222       Cu224   2.572       .  S
O222        C225   1.310       .  A
Cu223      Cu224   3.458   1_554  S
C225       C1305   1.481       .  S
C226       C1291   1.492       .  S
C227       C1277   1.491       .  S
C228       C1319   1.478       .  S
N229        N230   1.322       .  A
N229        C233   1.355       .  A
N229       Cu237   2.116       .  S
N230        C231   1.338       .  A
N230       Cu236   2.074       .  S
C231        C232   1.391       .  A
C231        H234   1.080       .  S
C232       C1260   1.513       .  S
C232        C233   1.403       .  A
C233        H235   1.078       .  S
Cu236       N239   2.072       .  S
Cu237       N247   2.116       .  S
Cu238       N240   2.048       .  S
Cu238       N246   2.049       .  S
N239        N240   1.318       .  A
N239        C243   1.347       .  A
N240        C241   1.341       .  A
C241        C242   1.380       .  A
C241        H244   1.082       .  S
C242        C878   1.468       .  S
C242        C243   1.386       .  A
C243        H245   1.082       .  S
N246        N247   1.324       .  A
N246        C250   1.340       .  A
N247        C248   1.353       .  A
C248        C249   1.391       .  A
C248        H251   1.082       .  S
C249       C1333   1.475       .  S
C249        C250   1.373       .  A
C250        H252   1.082       .  S
N253        N254   1.323       .  A
N253        C257   1.351       .  A
N253       Cu261   2.095       .  S
N254        C255   1.341       .  A
N254       Cu260   2.065       .  S
C255        C256   1.377       .  A
C255        H258   1.082       .  S
C256       C1274   1.473       .  S
C256        C257   1.387       .  A
C257        H259   1.082       .  S
Cu260       N263   2.064       .  S
Cu261       N271   2.095       .  S
Cu262       N264   2.069       .  S
Cu262       N270   2.071       .  S
N263        N264   1.320       .  A
N263        C267   1.343       .  A
N264        C265   1.346       .  A
C265        C266   1.384       .  A
C265        H268   1.082       .  S
C266        C830   1.469       .  S
C266        C267   1.382       .  A
C267        H269   1.082       .  S
N270        N271   1.325       .  A
N270        C274   1.342       .  A
N271        C272   1.350       .  A
C272        C273   1.386       .  A
C272        H275   1.082       .  S
C273       C1246   1.475       .  S
C273        C274   1.378       .  A
C274        H276   1.082       .  S
O277       Cu285   2.396   1_556  S
O277        C287   1.279       .  A
O278       Cu285   2.494   1_556  S
O278        C288   1.279       .  A
O279       Cu285   2.834   1_556  S
O279        C289   1.283       .  A
O280       Cu285   2.317   1_556  S
O280        C290   1.315       .  A
O281       Cu286   1.952       .  S
O281        C290   1.266       .  A
O282       Cu286   2.008       .  S
O282        C289   1.277       .  A
O283       Cu286   2.000       .  S
O283        C288   1.271       .  A
O284       Cu286   2.057       .  S
O284        C287   1.244       .  A
Cu285      Cu286   3.463   1_554  S
C287       C1263   1.486       .  S
C288       C1249   1.488       .  S
C289       C1218   1.487       .  S
C290       C1232   1.479       .  S
N291        N292   1.324       .  A
N291        C295   1.351       .  A
N291       Cu299   2.102       .  S
N292        C293   1.340       .  A
N292       Cu298   2.052       .  S
C293        C294   1.374       .  A
C293        H296   1.082       .  S
C294       C1431   1.473       .  S
C294        C295   1.388       .  A
C295        H297   1.082       .  S
Cu298       N301   2.050       .  S
Cu299       N309   2.102       .  S
Cu300       N302   2.055       .  S
Cu300       N308   2.056       .  S
N301        N302   1.319       .  A
N301        C305   1.342       .  A
N302        C303   1.342       .  A
C303        C304   1.381       .  A
C303        H306   1.082       .  S
C304        C765   1.460       .  S
C304        C305   1.380       .  A
C305        H307   1.082       .  S
N308        N309   1.323       .  A
N308        C312   1.340       .  A
N309        C310   1.350       .  A
C310        C311   1.392       .  A
C310        H313   1.082       .  S
C311       C1207   1.484       .  S
C311        C312   1.378       .  A
C312        H314   1.082       .  S
N315        N316   1.323       .  A
N315        C319   1.345       .  A
N315       Cu323   2.068       .  S
N316        C317   1.340       .  A
N316       Cu322   2.060       .  S
C317        C318   1.377       .  A
C317        H320   1.082       .  S
C318       C1235   1.464       .  S
C318        C319   1.382       .  A
C319        H321   1.082       .  S
Cu322       N325   2.059       .  S
Cu323       N333   2.068       .  S
Cu324       N326   2.055       .  S
Cu324       N332   2.056       .  S
N325        N326   1.320       .  A
N325        C329   1.343       .  A
N326        C327   1.342       .  A
C327        C328   1.381       .  A
C327        H330   1.082       .  S
C328        C909   1.462       .  S
C328        C329   1.381       .  A
C329        H331   1.082       .  S
N332        N333   1.322       .  A
N332        C336   1.339       .  A
N333        C334   1.346       .  A
C334        C335   1.381       .  A
C334        H337   1.082       .  S
C335       C1190   1.466       .  S
C335        C336   1.377       .  A
C336        H338   1.082       .  S
N339        N340   1.325       .  A
N339        C343   1.355       .  A
N339       Cu347   2.126       .  S
N340        C341   1.340       .  A
N340       Cu346   2.053       .  S
C341        C342   1.374       .  A
C341        H344   1.082       .  S
C342       C1176   1.485       .  S
C342        C343   1.396       .  A
C343        H345   1.082       .  S
Cu346       N349   2.052       .  S
Cu347       N357   2.125       .  S
Cu348       N350   2.053       .  S
Cu348       N356   2.055       .  S
N349        N350   1.317       .  A
N349        C353   1.342       .  A
N350        C351   1.343       .  A
C351        C352   1.382       .  A
C351        H354   1.082       .  S
C352        C789   1.463       .  S
C352        C353   1.381       .  A
C353        H355   1.082       .  S
N356        N357   1.322       .  A
N356        C360   1.337       .  A
N357        C358   1.356       .  A
C358        C359   1.400       .  A
C358        H361   1.082       .  S
C359       C1526   1.497       .  S
C359        C360   1.380       .  A
C360        H362   1.077       .  S
O363       Cu371   1.954   1_554  S
O363        C373   1.274       .  A
O364       Cu371   1.997   1_565  S
O364        C374   1.274       .  A
O365       Cu371   1.924       .  S
O365        C375   1.249       .  A
O366       Cu371   1.972   1_564  S
O366        C376   1.256       .  A
O367       Cu372   2.656   1_554  S
O367        C376   1.293       .  A
O368       Cu372   2.440   1_545  S
O368        C375   1.270       .  A
O369       Cu372   2.430   1_554  S
O369        C374   1.326   1_554  A
O370       Cu372   2.644   1_544  S
O370        C373   1.300       .  A
Cu371      Cu372   3.453   1_545  S
C373       C1204   1.475       .  S
C374       C1193   1.477       .  S
C375       C1162   1.465       .  S
C376       C1179   1.483       .  S
N377        N378   1.322       .  A
N377        C381   1.351       .  A
N377       Cu385   2.096       .  S
N378        C379   1.340       .  A
N378       Cu384   2.055       .  S
C379        C380   1.377       .  A
C379        H382   1.082       .  S
C380       C1148   1.481       .  S
C380        C381   1.391       .  A
C381        H383   1.082       .  S
Cu384       N387   2.055       .  S
Cu385       N395   2.096       .  S
Cu386       N388   2.076       .  S
Cu386       N394   2.078       .  S
N387        N388   1.319       .  A
N387        C391   1.341       .  A
N388        C389   1.348       .  A
C389        C390   1.386       .  A
C389        H392   1.082       .  S
C390        C813   1.469       .  S
C390        C391   1.380       .  A
C391        H393   1.082       .  S
N394        N395   1.326       .  A
N394        C398   1.342       .  A
N395        C396   1.351       .  A
C396        C397   1.386       .  A
C396        H399   1.082       .  S
C397       C1400   1.478       .  S
C397        C398   1.380       .  A
C398        H400   1.082       .  S
N401        N402   1.322       .  A
N401        C405   1.345       .  A
N401       Cu409   2.066       .  S
N402        C403   1.340       .  A
N402       Cu408   2.065       .  S
C403        C404   1.382       .  A
C403        H406   1.082       .  S
C404       C1221   1.475       .  S
C404        C405   1.384       .  A
C405        H407   1.081       .  S
Cu408       N411   2.065       .  S
Cu409       N419   2.066       .  S
Cu410       N412   2.064       .  S
Cu410       N418   2.065       .  S
N411        N412   1.320       .  A
N411        C415   1.344       .  A
N412        C413   1.344       .  A
C413        C414   1.382       .  A
C413        H416   1.082       .  S
C414        C844   1.466       .  S
C414        C415   1.382       .  A
C415        H417   1.082       .  S
N418        N419   1.322       .  A
N418        C422   1.340       .  A
N419        C420   1.345       .  A
C420        C421   1.384       .  A
C420        H423   1.082       .  S
C421       C1137   1.476       .  S
C421        C422   1.383       .  A
C422        H424   1.082       .  S
N425        N426   1.324       .  A
N425        C429   1.350       .  A
N425       Cu433   2.100       .  S
N426        C427   1.342       .  A
N426       Cu432   2.065       .  S
C427        C428   1.378       .  A
C427        H430   1.082       .  S
C428       C1120   1.477       .  S
C428        C429   1.389       .  A
C429        H431   1.082       .  S
Cu432       N435   2.064       .  S
Cu433       N443   2.100       .  S
Cu434       N436   2.070       .  S
Cu434       N442   2.071       .  S
N435        N436   1.320       .  A
N435        C439   1.345       .  A
N436        C437   1.345       .  A
C437        C438   1.384       .  A
C437        H440   1.082       .  S
C438        C820   1.469       .  S
C438        C439   1.382       .  A
C439        H441   1.082       .  S
N442        N443   1.322       .  A
N442        C446   1.342       .  A
N443        C444   1.350       .  A
C444        C445   1.394       .  A
C444        H447   1.081       .  S
C445       C1543   1.495       .  S
C445        C446   1.385       .  A
C446        H448   1.082       .  S
O449       Cu457   2.003   1_554  S
O449        C459   1.278       .  A
O450       Cu457   1.955   1_565  S
O450        C460   1.275       .  A
O451       Cu457   1.949   1_564  S
O451        C461   1.251       .  A
O452       Cu457   1.918       .  S
O452        C462   1.248       .  A
O453       Cu458   2.425   1_556  S
O453        C462   1.268       .  A
O454       Cu458   2.678   1_565  S
O454        C461   1.297       .  A
O455       Cu458   2.640   1_566  S
O455        C460   1.303       .  A
O456       Cu458   2.428   1_565  S
O456        C459   1.322   1_565  A
Cu457      Cu458   3.454   1_556  S
C459       C1106   1.499       .  S
C460       C1123   1.493       .  S
C461       C1151   1.492       .  S
C462       C1134   1.459       .  S
N463        N464   1.326       .  A
N463        C467   1.353       .  A
N463       Cu471   2.112       .  S
N464        C465   1.341       .  A
N464       Cu470   2.072       .  S
C465        C466   1.379       .  A
C465        H468   1.082       .  S
C466       C1515   1.485       .  S
C466        C467   1.390       .  A
C467        H469   1.082       .  S
Cu470       N473   2.070       .  S
Cu471       N481   2.111       .  S
Cu472       N474   2.042       .  S
Cu472       N480   2.043       .  S
N473        N474   1.318       .  A
N473        C477   1.346       .  A
N474        C475   1.340       .  A
C475        C476   1.378       .  A
C475        H478   1.082       .  S
C476        C902   1.464       .  S
C476        C477   1.385       .  A
C477        H479   1.082       .  S
N480        N481   1.323       .  A
N480        C484   1.340       .  A
N481        C482   1.352       .  A
C482        C483   1.391       .  A
C482        H485   1.082       .  S
C483       C1092   1.473       .  S
C483        C484   1.372       .  A
C484        H486   1.082       .  S
N487        N488   1.325       .  A
N487        C491   1.352       .  A
N487       Cu495   2.110       .  S
N488        C489   1.345       .  A
N488       Cu494   2.073       .  S
C489        C490   1.379       .  A
C489        H492   1.082       .  S
C490       C1445   1.482       .  S
C490        C491   1.389       .  A
C491        H493   1.082   1_655  S
Cu494       N497   2.072       .  S
Cu495       N505   2.109       .  S
Cu496       N498   2.070       .  S
Cu496       N504   2.070       .  S
N497        N498   1.321       .  A
N497        C501   1.345       .  A
N498        C499   1.345       .  A
C499        C500   1.383       .  A
C499        H502   1.082       .  S
C500        C868   1.471       .  S
C500        C501   1.384       .  A
C501        H503   1.082       .  S
N504        N505   1.324       .  A
N504        C508   1.345       .  A
N505        C506   1.351       .  A
C506        C507   1.391       .  A
C506        H509   1.082   1_655  S
C507       C1078   1.485       .  S
C507        C508   1.381       .  A
C508        H510   1.082       .  S
N511        N512   1.322       .  A
N511        C515   1.353       .  A
N511       Cu519   2.105       .  S
N512        C513   1.339       .  A
N512       Cu518   2.067       .  S
C513        C514   1.384       .  A
C513        H516   1.077       .  S
C514       C1064   1.495       .  S
C514        C515   1.395       .  A
C515        H517   1.082       .  S
Cu518       N521   2.065       .  S
Cu519       N529   2.105       .  S
Cu520       N522   2.061       .  S
Cu520       N528   2.063       .  S
N521        N522   1.319       .  A
N521        C525   1.345       .  A
N522        C523   1.344       .  A
C523        C524   1.382       .  A
C523        H526   1.082       .  S
C524        C837   1.467       .  S
C524        C525   1.383       .  A
C525        H527   1.082       .  S
N528        N529   1.324       .  A
N528        C532   1.341       .  A
N529        C530   1.351       .  A
C530        C531   1.391       .  A
C530        H533   1.082       .  S
C531       C1557   1.485       .  S
C531        C532   1.380       .  A
C532        H534   1.082       .  S
O535       Cu543   2.450       .  S
O535        C545   1.335   1_455  A
O536       Cu543   2.718   1_545  S
O536        C546   1.285       .  A
O537       Cu543   2.566       .  S
O537        C547   1.312       .  A
O538       Cu543   2.447   1_545  S
O538        C548   1.281       .  A
O539       Cu544   1.917       .  S
O539        C548   1.255       .  A
O540       Cu544   1.981   1_565  S
O540        C547   1.261       .  A
O541       Cu544   1.961       .  S
O541        C546   1.268       .  A
O542       Cu544   1.996   1_565  S
O542        C545   1.268   1_455  A
Cu543      Cu544   3.417   1_565  S
C545       C1095   1.498       .  S
C546       C1053   1.477       .  S
C547       C1067   1.484       .  S
C548       C1081   1.482       .  S
N549        N550   1.322       .  A
N549        C553   1.347       .  A
N549       Cu557   2.074       .  S
N550        C551   1.342       .  A
N550       Cu556   2.071       .  S
C551        C552   1.384       .  A
C551        H554   1.082       .  S
C552       C1165   1.480       .  S
C552        C553   1.385       .  A
C553        H555   1.082       .  S
Cu556       N559   2.071       .  S
Cu557       N567   2.074       .  S
Cu558       N560   2.071       .  S
Cu558       N566   2.071       .  S
N559        N560   1.321       .  A
N559        C563   1.344       .  A
N560        C561   1.345       .  A
C561        C562   1.383       .  A
C561        H564   1.082       .  S
C562        C885   1.469       .  S
C562        C563   1.383       .  A
C563        H565   1.082       .  S
N566        N567   1.323       .  A
N566        C570   1.343       .  A
N567        C568   1.346       .  A
C568        C569   1.382       .  A
C568        H571   1.082       .  S
C569       C1039   1.470       .  S
C569        C570   1.380       .  A
C570        H572   1.082       .  S
N573        N574   1.322       .  A
N573        C577   1.351       .  A
N573       Cu581   2.099       .  S
N574        C575   1.338       .  A
N574       Cu580   2.074       .  S
C575        C576   1.390       .  A
C575        H578   1.077       .  S
C576       C1022   1.504       .  S
C576        C577   1.396       .  A
C577        H579   1.081       .  S
Cu580       N583   2.073       .  S
Cu581       N591   2.098       .  S
Cu582       N584   2.038       .  S
Cu582       N590   2.039       .  S
N583        N584   1.317       .  A
N583        C587   1.346       .  A
N584        C585   1.340       .  A
C585        C586   1.378       .  A
C585        H588   1.082       .  S
C586        C926   1.465       .  S
C586        C587   1.387       .  A
C587        H589   1.082       .  S
N590        N591   1.319       .  A
N590        C594   1.335       .  A
N591        C592   1.350       .  A
C592        C593   1.397       .  A
C592        H595   1.081       .  S
C593       C1109   1.491       .  S
C593        C594   1.381       .  A
C594        H596   1.079       .  S
N597        N598   1.322       .  A
N597        C601   1.347       .  A
N597       Cu605   2.080       .  S
N598        C599   1.341       .  A
N598       Cu604   2.068       .  S
C599        C600   1.383       .  A
C599        H602   1.080       .  S
C600       C1008   1.480       .  S
C600        C601   1.387       .  A
C601        H603   1.082       .  S
Cu604       N607   2.066       .  S
Cu605       N615   2.080       .  S
Cu606       N608   2.070       .  S
Cu606       N614   2.071       .  S
N607        N608   1.321       .  A
N607        C611   1.344       .  A
N608        C609   1.345       .  A
C609        C610   1.383       .  A
C609        H612   1.082       .  S
C610        C854   1.468       .  S
C610        C611   1.382       .  A
C611        H613   1.082       .  S
N614        N615   1.324       .  A
N614        C618   1.342       .  A
N615        C616   1.348       .  A
C616        C617   1.383       .  A
C616        H619   1.082       .  S
C617       C1050   1.471       .  S
C617        C618   1.379       .  A
C618        H620   1.082       .  S
O621       Cu629   1.907       .  S
O621        C631   1.258       .  A
O622       Cu629   1.972       .  S
O622        C632   1.264       .  A
O623       Cu629   1.955       .  S
O623        C633   1.263       .  A
O624       Cu629   1.987       .  S
O624        C634   1.268       .  A
O625       Cu630   2.438   1_545  S
O625        C634   1.331       .  A
O626       Cu630   2.734   1_545  S
O626        C633   1.280       .  A
O627       Cu630   2.562   1_545  S
O627        C632   1.315       .  A
O628       Cu630   2.439   1_545  S
O628        C631   1.285       .  A
Cu629      Cu630   3.429   1_545  S
C631       C1036   1.481       .  S
C632       C1025   1.489       .  S
C633       C1011   1.468       .  S
C634        C997   1.491       .  S
N635        N636   1.323       .  A
N635        C639   1.352       .  A
N635       Cu643   2.107       .  S
N636        C637   1.341       .  A
N636       Cu642   2.052       .  S
C637        C638   1.376       .  A
C637        H640   1.082       .  S
C638        C983   1.477       .  S
C638        C639   1.390       .  A
C639        H641   1.082       .  S
Cu642       N645   2.052       .  S
Cu643       N653   2.107       .  S
Cu644       N646   2.068       .  S
Cu644       N652   2.069       .  S
N645        N646   1.319       .  A
N645        C649   1.340       .  A
N646        C647   1.346       .  A
C647        C648   1.384       .  A
C647        H650   1.082       .  S
C648        C806   1.465       .  S
C648        C649   1.380       .  A
C649        H651   1.082       .  S
N652        N653   1.325       .  A
N652        C656   1.342       .  A
N653        C654   1.352       .  A
C654        C655   1.389       .  A
C654        H657   1.082       .  S
C655       C1501   1.480       .  S
C655        C656   1.377       .  A
C656        H658   1.082       .  S
N659        N660   1.324       .  A
N659        C663   1.348   1_655  A
N659       Cu667   2.083       .  S
N660        C661   1.344       .  A
N660       Cu666   2.075       .  S
C661        C662   1.380       .  A
C661        H664   1.082       .  S
C662        C966   1.473   1_655  S
C662        C663   1.382   1_655  A
C663        H665   1.082       .  S
Cu666       N669   2.073       .  S
Cu667       N677   2.083       .  S
Cu668       N670   2.063       .  S
Cu668       N676   2.064       .  S
N669        N670   1.321       .  A
N669        C673   1.345       .  A
N670        C671   1.344       .  A
C671        C672   1.381       .  A
C671        H674   1.082       .  S
C672        C772   1.467       .  S
C672        C673   1.383       .  A
C673        H675   1.082       .  S
N676        N677   1.323       .  A
N676        C680   1.342       .  A
N677        C678   1.348   1_655  A
C678        C679   1.384   1_455  A
C678        H681   1.082       .  S
C679       C1459   1.471   1_655  S
C679        C680   1.378       .  A
C680        H682   1.082       .  S
N683        N684   1.325       .  A
N683        C687   1.351       .  A
N683       Cu691   2.103       .  S
N684        C685   1.340       .  A
N684       Cu690   2.055       .  S
C685        C686   1.373       .  A
C685        H688   1.082       .  S
C686        C994   1.471       .  S
C686        C687   1.388       .  A
C687        H689   1.082       .  S
Cu690       N693   2.053       .  S
Cu691       N701   2.102       .  S
Cu692       N694   2.040       .  S
Cu692       N700   2.040       .  S
N693        N694   1.318       .  A
N693        C697   1.342       .  A
N694        C695   1.340       .  A
C695        C696   1.378       .  A
C695        H698   1.082       .  S
C696        C748   1.457       .  S
C696        C697   1.382       .  A
C697        H699   1.082       .  S
N700        N701   1.320       .  A
N700        C704   1.337       .  A
N701        C702   1.349       .  A
C702        C703   1.397       .  A
C702        H705   1.081       .  S
C703        C952   1.492       .  S
C703        C704   1.382       .  A
C704        H706   1.079       .  S
N707        N708   1.322       .  A
N707        C711   1.347       .  A
N707       Cu715   2.093       .  S
N708        C709   1.342       .  A
N708       Cu714   2.058       .  S
C709        C710   1.381       .  A
C709        H712   1.080       .  S
C710       C1571   1.483       .  S
C710        C711   1.390       .  A
C711        H713   1.082       .  S
Cu714       N717   2.056       .  S
Cu715       N725   2.093       .  S
Cu716       N718   2.066       .  S
Cu716       N724   2.067       .  S
N717        N718   1.320       .  A
N717        C721   1.343       .  A
N718        C719   1.344       .  A
C719        C720   1.382       .  A
C719        H722   1.082       .  S
C720        C916   1.464       .  S
C720        C721   1.380       .  A
C721        H723   1.082       .  S
N724        N725   1.323       .  A
N724        C728   1.342       .  A
N725        C726   1.350       .  A
C726        C727   1.387       .  A
C726        H729   1.082       .  S
C727        C938   1.475       .  S
C727        C728   1.379       .  A
C728        H730   1.082       .  S
O731       Cu739   2.007   1_565  S
O731        C741   1.272       .  A
O732       Cu739   1.973       .  S
O732        C742   1.272   1_455  A
O733       Cu739   1.908       .  S
O733        C743   1.252       .  A
O734       Cu739   1.971   1_565  S
O734        C744   1.256       .  A
O735       Cu740   2.540       .  S
O735        C744   1.307       .  A
O736       Cu740   2.457   1_545  S
O736        C743   1.279       .  A
O737       Cu740   2.748   1_645  S
O737        C742   1.296       .  A
O738       Cu740   2.456       .  S
O738        C741   1.337       .  A
Cu739      Cu740   3.415   1_545  S
C741        C980   1.498       .  S
C742        C955   1.490       .  S
C743        C941   1.488       .  S
C744        C969   1.472       .  S
N745        N746   1.321       .  A
N745        C749   1.341       .  A
N745       Cu753   2.050       .  S
N746        C747   1.342       .  A
N746       Cu752   2.061       .  S
C747        C748   1.380       .  A
C747        H750   1.082       .  S
C748        C749   1.377       .  A
C749        H751   1.082       .  S
Cu752       N755   2.061       .  S
Cu753       N763   2.051       .  S
Cu754       N756   2.063       .  S
Cu754       N762   2.062       .  S
N755        N756   1.322       .  A
N755        C759   1.344       .  A
N756        C757   1.342       .  A
C757        C758   1.380       .  A
C757        H760   1.082       .  S
C758        C759   1.380       .  A
C759        H761   1.082       .  S
N762        N763   1.321       .  A
N762        C766   1.343       .  A
N763        C764   1.341       .  A
C764        C765   1.378       .  A
C764        H767   1.082       .  S
C765        C766   1.381       .  A
C766        H768   1.082       .  S
N769        N770   1.322       .  A
N769        C773   1.344       .  A
N769       Cu777   2.066       .  S
N770        C771   1.345       .  A
N770       Cu776   2.075       .  S
C771        C772   1.382       .  A
C771        H774   1.082       .  S
C772        C773   1.381       .  A
C773        H775   1.082       .  S
Cu776       N779   2.074       .  S
Cu777       N787   2.066       .  S
Cu778       N780   2.062       .  S
Cu778       N786   2.062       .  S
N779        N780   1.322       .  A
N779        C783   1.345       .  A
N780        C781   1.344       .  A
C781        C782   1.380       .  A
C781        H784   1.082       .  S
C782        C783   1.382       .  A
C783        H785   1.082       .  S
N786        N787   1.322       .  A
N786        C790   1.342       .  A
N787        C788   1.344       .  A
C788        C789   1.381       .  A
C788        H791   1.082       .  S
C789        C790   1.380       .  A
C790        H792   1.082       .  S
N793        N794   1.322       .  A
N793        C797   1.344       .  A
N793       Cu801   2.079       .  S
N794        C795   1.346       .  A
N794       Cu800   2.063       .  S
C795        C796   1.380       .  A
C795        H798   1.082       .  S
C796        C797   1.384       .  A
C797        H799   1.082       .  S
Cu800       N803   2.063       .  S
Cu801       N811   2.079       .  S
Cu802       N804   2.068       .  S
Cu802       N810   2.069       .  S
N803        N804   1.322       .  A
N803        C807   1.341       .  A
N804        C805   1.346       .  A
C805        C806   1.382       .  A
C805        H808   1.082       .  S
C806        C807   1.380       .  A
C807        H809   1.082       .  S
N810        N811   1.323       .  A
N810        C814   1.342       .  A
N811        C812   1.347       .  A
C812        C813   1.384       .  A
C812        H815   1.082       .  S
C813        C814   1.381       .  A
C814        H816   1.082       .  S
N817        N818   1.323       .  A
N817        C821   1.344       .  A
N817       Cu825   2.067       .  S
N818        C819   1.346       .  A
N818       Cu824   2.078       .  S
C819        C820   1.383       .  A
C819        H822   1.082       .  S
C820        C821   1.381       .  A
C821        H823   1.082       .  S
Cu824       N827   2.077       .  S
Cu825       N835   2.067       .  S
Cu826       N828   2.070       .  S
Cu826       N834   2.070       .  S
N827        N828   1.323       .  A
N827        C831   1.346       .  A
N828        C829   1.344       .  A
C829        C830   1.381       .  A
C829        H832   1.082       .  S
C830        C831   1.383       .  A
C831        H833   1.082       .  S
N834        N835   1.322       .  A
N834        C838   1.344       .  A
N835        C836   1.344       .  A
C836        C837   1.381       .  A
C836        H839   1.082       .  S
C837        C838   1.382       .  A
C838        H840   1.082       .  S
N841        N842   1.322       .  A
N841        C845   1.343       .  A
N841       Cu849   2.065       .  S
N842        C843   1.345       .  A
N842       Cu848   2.072       .  S
C843        C844   1.382       .  A
C843        H846   1.082       .  S
C844        C845   1.381       .  A
C845        H847   1.082       .  S
Cu848       N851   2.072       .  S
Cu849       N859   2.065       .  S
Cu850       N852   2.072       .  S
Cu850       N858   2.072       .  S
N851        N852   1.322       .  A
N851        C855   1.345       .  A
N852        C853   1.345       .  A
C853        C854   1.382       .  A
C853        H856   1.082       .  S
C854        C855   1.382       .  A
C855        H857   1.082       .  S
N858        N859   1.322       .  A
N858        C862   1.344       .  A
N859        C860   1.345       .  A
C860        C861   1.381       .  A
C860        H863   1.082       .  S
C861        C862   1.382       .  A
C862        H864   1.082       .  S
N865        N866   1.322       .  A
N865        C869   1.345       .  A
N865       Cu873   2.077       .  S
N866        C867   1.345       .  A
N866       Cu872   2.072       .  S
C867        C868   1.382       .  A
C867        H870   1.082       .  S
C868        C869   1.383       .  A
C869        H871   1.082       .  S
Cu872       N875   2.072       .  S
Cu873       N883   2.077       .  S
Cu874       N876   2.068       .  S
Cu874       N882   2.069       .  S
N875        N876   1.322       .  A
N875        C879   1.343       .  A
N876        C877   1.345       .  A
C877        C878   1.382       .  A
C877        H880   1.082       .  S
C878        C879   1.382       .  A
C879        H881   1.082       .  S
N882        N883   1.323       .  A
N882        C886   1.344       .  A
N883        C884   1.346       .  A
C884        C885   1.383       .  A
C884        H887   1.082       .  S
C885        C886   1.381       .  A
C886        H888   1.082       .  S
N889        N890   1.322       .  A
N889        C893   1.344       .  A
N889       Cu897   2.065       .  S
N890        C891   1.344       .  A
N890       Cu896   2.067       .  S
C891        C892   1.381       .  A
C891        H894   1.082       .  S
C892        C893   1.381       .  A
C893        H895   1.082       .  S
Cu896       N899   2.067       .  S
Cu897       N907   2.065       .  S
Cu898       N900   2.061       .  S
Cu898       N906   2.061       .  S
N899        N900   1.322       .  A
N899        C903   1.342       .  A
N900        C901   1.345       .  A
C901        C902   1.380       .  A
C901        H904   1.082       .  S
C902        C903   1.381       .  A
C903        H905   1.082       .  S
N906        N907   1.322       .  A
N906        C910   1.343       .  A
N907        C908   1.343       .  A
C908        C909   1.380       .  A
C908        H911   1.082       .  S
C909        C910   1.380       .  A
C910        H912   1.082       .  S
N913        N914   1.321       .  A
N913        C917   1.344       .  A
N913       Cu921   2.067       .  S
N914        C915   1.343       .  A
N914       Cu920   2.058       .  S
C915        C916   1.380       .  A
C915        H918   1.082       .  S
C916        C917   1.382       .  A
C917        H919   1.082       .  S
Cu920       N923   2.058       .  S
Cu921       N931   2.067       .  S
Cu922       N924   2.077       .  S
Cu922       N930   2.077       .  S
N923        N924   1.322       .  A
N923        C927   1.343       .  A
N924        C925   1.344       .  A
C925        C926   1.384       .  A
C925        H928   1.082       .  S
C926        C927   1.379       .  A
C927        H929   1.082       .  S
N930        N931   1.323       .  A
N930        C934   1.345       .  A
N931        C932   1.344       .  A
C932        C933   1.381       .  A
C932        H935   1.082       .  S
C933        C934   1.383       .  A
C934        H936   1.082       .  S
C937        C938   1.397       .  A
C937        C942   1.401       .  A
C937        H944   1.084       .  S
C938        C939   1.416       .  A
C939        C940   1.408       .  A
C939        N946   1.437       .  S
C940        C941   1.404       .  A
C940        H945   1.083       .  S
C941        C942   1.420       .  A
C942        N943   1.439       .  S
N943        H947   1.046       .  S
N943        H948   1.046       .  S
N946        H949   1.044       .  S
N946        H950   1.046       .  S
C951        C952   1.402       .  A
C951        C956   1.398       .  A
C951        H958   1.082       .  S
C952        C953   1.417       .  A
C953        C954   1.402       .  A
C953        N960   1.431       .  S
C954        C955   1.403       .  A
C954        H959   1.084       .  S
C955        C956   1.408       .  A
C956        N957   1.416   1_545  S
N957        H961   1.045       .  S
N957        H962   1.041       .  S
N960        H963   1.046       .  S
N960        H964   1.046       .  S
C965        C966   1.404       .  A
C965        C970   1.411       .  A
C965        H972   1.084       .  S
C966        C967   1.407   1_455  A
C967        C968   1.403   1_655  A
C967        N974   1.438       .  S
C968        C969   1.395       .  A
C968        H973   1.073   1_455  S
C969        C970   1.409       .  A
C970        N971   1.437       .  S
N971        H975   1.046       .  S
N971        H976   1.046       .  S
N974        H977   1.045       .  S
N974        H978   1.045       .  S
C979        C980   1.409       .  A
C979        C984   1.399       .  A
C979        H986   1.083       .  S
C980        C981   1.417       .  A
C981        C982   1.410       .  A
C981        N988   1.431       .  S
C982        C983   1.398       .  A
C982        H987   1.084       .  S
C983        C984   1.410       .  A
C984        N985   1.433       .  S
N985        H989   1.045       .  S
N985        H990   1.045       .  S
N988        H991   1.041       .  S
N988        H992   1.046       .  S
C993        C994   1.400       .  A
C993        C998   1.404       .  A
C993       H1000   1.084       .  S
C994        C995   1.413       .  A
C995        C996   1.401       .  A
C995       N1002   1.439       .  S
C996        C997   1.410       .  A
C996       H1001   1.083       .  S
C997        C998   1.411       .  A
C998        N999   1.428       .  S
N999       H1003   1.045   1_545  S
N999       H1004   1.046       .  S
N1002      H1005   1.043       .  S
N1002      H1006   1.046       .  S
C1007      C1008   1.406       .  A
C1007      C1012   1.408       .  A
C1007      H1014   1.084       .  S
C1008      C1009   1.416       .  A
C1009      C1010   1.395       .  A
C1009      N1016   1.433       .  S
C1010      C1011   1.399       .  A
C1010      H1015   1.085       .  S
C1011      C1012   1.407       .  A
C1012      N1013   1.435       .  S
N1013      H1017   1.046       .  S
N1013      H1018   1.045       .  S
N1016      H1019   1.045       .  S
N1016      H1020   1.042       .  S
C1021      C1022   1.412       .  A
C1021      C1026   1.414       .  A
C1021      H1028   1.081       .  S
C1022      C1023   1.420       .  A
C1023      C1024   1.399       .  A
C1023      N1030   1.436       .  S
C1024      C1025   1.401       .  A
C1024      H1029   1.083       .  S
C1025      C1026   1.412       .  A
C1026      N1027   1.436       .  S
N1027      H1031   1.046       .  S
N1027      H1032   1.039       .  S
N1030      H1033   1.046       .  S
N1030      H1034   1.046       .  S
C1035      C1036   1.407       .  A
C1035      C1040   1.400       .  A
C1035      H1042   1.084       .  S
C1036      C1037   1.410       .  A
C1037      C1038   1.407       .  A
C1037      N1044   1.433   1_545  S
C1038      C1039   1.402       .  A
C1038      H1043   1.084       .  S
C1039      C1040   1.406       .  A
C1040      N1041   1.438       .  S
N1041      H1045   1.046       .  S
N1041      H1046   1.045       .  S
N1044      H1047   1.045       .  S
N1044      H1048   1.046       .  S
C1049      C1050   1.398       .  A
C1049      C1054   1.400       .  A
C1049      H1056   1.084       .  S
C1050      C1051   1.409       .  A
C1051      C1052   1.409       .  A
C1051      N1058   1.437       .  S
C1052      C1053   1.405       .  A
C1052      H1057   1.084       .  S
C1053      C1054   1.413       .  A
C1054      N1055   1.439       .  S
N1055      H1059   1.046       .  S
N1055      H1060   1.046   1_545  S
N1058      H1061   1.046       .  S
N1058      H1062   1.046       .  S
C1063      C1064   1.410       .  A
C1063      C1068   1.414       .  A
C1063      H1070   1.083       .  S
C1064      C1065   1.420       .  A
C1065      C1066   1.395       .  A
C1065      N1072   1.433       .  S
C1066      C1067   1.399       .  A
C1066      H1071   1.082       .  S
C1067      C1068   1.407       .  A
C1068      N1069   1.429       .  S
N1069      H1073   1.043       .  S
N1069      H1074   1.045       .  S
N1072      H1075   1.045       .  S
N1072      H1076   1.041       .  S
C1077      C1078   1.399   1_455  A
C1077      C1082   1.401       .  A
C1077      H1084   1.084       .  S
C1078      C1079   1.421       .  A
C1079      C1080   1.408       .  A
C1079      N1086   1.437       .  S
C1080      C1081   1.402   1_655  A
C1080      H1085   1.084       .  S
C1081      C1082   1.423       .  A
C1082      N1083   1.441       .  S
N1083      H1087   1.045       .  S
N1083      H1088   1.042       .  S
N1086      H1089   1.043       .  S
N1086      H1090   1.045       .  S
C1091      C1092   1.400       .  A
C1091      C1096   1.404       .  A
C1091      H1098   1.084       .  S
C1092      C1093   1.404       .  A
C1093      C1094   1.407       .  A
C1093      N1100   1.437       .  S
C1094      C1095   1.406       .  A
C1094      H1099   1.073       .  S
C1095      C1096   1.416       .  A
C1096      N1097   1.432       .  S
N1097      H1101   1.046       .  S
N1097      H1102   1.045   1_565  S
N1100      H1103   1.045       .  S
N1100      H1104   1.045       .  S
C1105      C1106   1.406       .  A
C1105      C1110   1.401       .  A
C1105      H1112   1.083       .  S
C1106      C1107   1.430       .  A
C1107      C1108   1.403       .  A
C1107      N1114   1.432   1_545  S
C1108      C1109   1.399       .  A
C1108      H1113   1.083       .  S
C1109      C1110   1.414       .  A
C1110      N1111   1.437       .  S
N1111      H1115   1.046       .  S
N1111      H1116   1.046       .  S
N1114      H1117   1.031       .  S
N1114      H1118   1.045       .  S
C1119      C1120   1.395       .  A
C1119      C1124   1.403       .  A
C1119      H1126   1.084       .  S
C1120      C1121   1.411       .  A
C1121      C1122   1.410       .  A
C1121      N1128   1.437       .  S
C1122      C1123   1.403       .  A
C1122      H1127   1.078       .  S
C1123      C1124   1.423       .  A
C1124      N1125   1.439   1_565  S
N1125      H1129   1.046       .  S
N1125      H1130   1.045       .  S
N1128      H1131   1.045       .  S
N1128      H1132   1.046       .  S
C1133      C1134   1.397       .  A
C1133      C1138   1.400       .  A
C1133      H1140   1.083       .  S
C1134      C1135   1.407       .  A
C1135      C1136   1.404       .  A
C1135      N1142   1.438   1_556  S
C1136      C1137   1.405       .  A
C1136      H1141   1.083       .  S
C1137      C1138   1.412       .  A
C1138      N1139   1.437       .  S
N1139      H1143   1.046       .  S
N1139      H1144   1.045       .  S
N1142      H1145   1.045       .  S
N1142      H1146   1.046       .  S
C1147      C1148   1.405       .  A
C1147      C1152   1.401       .  A
C1147      H1154   1.084       .  S
C1148      C1149   1.415       .  A
C1149      C1150   1.401       .  A
C1149      N1156   1.438   1_554  S
C1150      C1151   1.409       .  A
C1150      H1155   1.085   1_554  S
C1151      C1152   1.412       .  A
C1152      N1153   1.429       .  S
N1153      H1157   1.043       .  S
N1153      H1158   1.042       .  S
N1156      H1159   1.041   1_556  S
N1156      H1160   1.045       .  S
C1161      C1162   1.398       .  A
C1161      C1166   1.404       .  A
C1161      H1168   1.084       .  S
C1162      C1163   1.408       .  A
C1163      C1164   1.406       .  A
C1163      N1170   1.438   1_545  S
C1164      C1165   1.404       .  A
C1164      H1169   1.083       .  S
C1165      C1166   1.413       .  A
C1166      N1167   1.437       .  S
N1167      H1171   1.046       .  S
N1167      H1172   1.045       .  S
N1170      H1173   1.045       .  S
N1170      H1174   1.046       .  S
C1175      C1176   1.410       .  A
C1175      C1180   1.410       .  A
C1175      H1182   1.084       .  S
C1176      C1177   1.417       .  A
C1177      C1178   1.402       .  A
C1177      N1184   1.438   1_565  S
C1178      C1179   1.407       .  A
C1178      H1183   1.084   1_565  S
C1179      C1180   1.408       .  A
C1180      N1181   1.437       .  S
N1181      H1185   1.046       .  S
N1181      H1186   1.046       .  S
N1184      H1187   1.041   1_545  S
N1184      H1188   1.046       .  S
C1189      C1190   1.398       .  A
C1189      C1194   1.401       .  A
C1189      H1196   1.084       .  S
C1190      C1191   1.415       .  A
C1191      C1192   1.398       .  A
C1191      N1198   1.439       .  S
C1192      C1193   1.402       .  A
C1192      H1197   1.084       .  S
C1193      C1194   1.410       .  A
C1194      N1195   1.430       .  S
N1195      H1199   1.045       .  S
N1195      H1200   1.038       .  S
N1198      H1201   1.043       .  S
N1198      H1202   1.046   1_556  S
C1203      C1204   1.405       .  A
C1203      C1208   1.403       .  A
C1203      H1210   1.085   1_554  S
C1204      C1205   1.404       .  A
C1205      C1206   1.409       .  A
C1205      N1212   1.435       .  S
C1206      C1207   1.409       .  A
C1206      H1211   1.083       .  S
C1207      C1208   1.410       .  A
C1208      N1209   1.438       .  S
N1209      H1213   1.046   1_554  S
N1209      H1214   1.046       .  S
N1212      H1215   1.041       .  S
N1212      H1216   1.046       .  S
C1217      C1218   1.409       .  A
C1217      C1222   1.404       .  A
C1217      H1224   1.081   1_556  S
C1218      C1219   1.417       .  A
C1219      C1220   1.401       .  A
C1219      N1226   1.438       .  S
C1220      C1221   1.401       .  A
C1220      H1225   1.084       .  S
C1221      C1222   1.408       .  A
C1222      N1223   1.438   1_556  S
N1223      H1227   1.046       .  S
N1223      H1228   1.044   1_554  S
N1226      H1229   1.046       .  S
N1226      H1230   1.046       .  S
C1231      C1232   1.402       .  A
C1231      C1236   1.400       .  A
C1231      H1238   1.080       .  S
C1232      C1233   1.423       .  A
C1233      C1234   1.393       .  A
C1233      N1240   1.434       .  S
C1234      C1235   1.396       .  A
C1234      H1239   1.085       .  S
C1235      C1236   1.412       .  A
C1236      N1237   1.438       .  S
N1237      H1241   1.045   1_556  S
N1237      H1242   1.043       .  S
N1240      H1243   1.044       .  S
N1240      H1244   1.045       .  S
C1245      C1246   1.400       .  A
C1245      C1250   1.402       .  A
C1245      H1252   1.085       .  S
C1246      C1247   1.413       .  A
C1247      C1248   1.402       .  A
C1247      N1254   1.439       .  S
C1248      C1249   1.408       .  A
C1248      H1253   1.084       .  S
C1249      C1250   1.423       .  A
C1250      N1251   1.437   1_556  S
N1251      H1255   1.046   1_554  S
N1251      H1256   1.035       .  S
N1254      H1257   1.042       .  S
N1254      H1258   1.046       .  S
C1259      C1260   1.408       .  A
C1259      C1264   1.396       .  A
C1259      H1266   1.079       .  S
C1260      C1261   1.422       .  A
C1261      C1262   1.420       .  A
C1261      N1268   1.435       .  S
C1262      C1263   1.405       .  A
C1262      H1267   1.084       .  S
C1263      C1264   1.415       .  A
C1264      N1265   1.439       .  S
N1265      H1269   1.045       .  S
N1265      H1270   1.040       .  S
N1268      H1271   1.045       .  S
N1268      H1272   1.046       .  S
C1273      C1274   1.396       .  A
C1273      C1278   1.403       .  A
C1273      H1280   1.084       .  S
C1274      C1275   1.407       .  A
C1275      C1276   1.410       .  A
C1275      N1282   1.437       .  S
C1276      C1277   1.408       .  A
C1276      H1281   1.083       .  S
C1277      C1278   1.422       .  A
C1278      N1279   1.439       .  S
N1279      H1283   1.046       .  S
N1279      H1284   1.046   1_556  S
N1282      H1285   1.046       .  S
N1282      H1286   1.046       .  S
C1287      C1288   1.400       .  A
C1287      C1292   1.409       .  A
C1287      H1294   1.084       .  S
C1288      C1289   1.405       .  A
C1289      C1290   1.396       .  A
C1289      N1296   1.439       .  S
C1290      C1291   1.410       .  A
C1290      H1295   1.083       .  S
C1291      C1292   1.418       .  A
C1292      N1293   1.436       .  S
N1293      H1297   1.045       .  S
N1293      H1298   1.042       .  S
N1296      H1299   1.046       .  S
N1296      H1300   1.046       .  S
C1301      C1302   1.396       .  A
C1301      C1306   1.401       .  A
C1301      H1308   1.084       .  S
C1302      C1303   1.413       .  A
C1303      C1304   1.400       .  A
C1303      N1310   1.439       .  S
C1304      C1305   1.404       .  A
C1304      H1309   1.084       .  S
C1305      C1306   1.413       .  A
C1306      N1307   1.430       .  S
N1307      H1311   1.046       .  S
N1307      H1312   1.038   1_455  S
N1310      H1313   1.043       .  S
N1310      H1314   1.046       .  S
C1315      C1316   1.404       .  A
C1315      C1320   1.394       .  A
C1315      H1322   1.082       .  S
C1316      C1317   1.418       .  A
C1317      C1318   1.400       .  A
C1317      N1324   1.430   1_554  S
C1318      C1319   1.398       .  A
C1318      H1323   1.070   1_554  S
C1319      C1320   1.420       .  A
C1320      N1321   1.439       .  S
N1321      H1325   1.046       .  S
N1321      H1326   1.039       .  S
N1324      H1327   1.045       .  S
N1324      H1328   1.043   1_556  S
C1329      C1330   1.406       .  A
C1329      C1334   1.408       .  A
C1329      H1336   1.077       .  S
C1330      C1331   1.425       .  A
C1331      C1332   1.400       .  A
C1331      N1338   1.432       .  S
C1332      C1333   1.399       .  A
C1332      H1337   1.084       .  S
C1333      C1334   1.405       .  A
C1334      N1335   1.438       .  S
N1335      H1339   1.046       .  S
N1335      H1340   1.044       .  S
N1338      H1341   1.045   1_556  S
N1338      H1342   1.045       .  S
C1343      C1344   1.398       .  A
C1343      C1348   1.410   1_655  A
C1343      H1350   1.084       .  S
C1344      C1345   1.407       .  A
C1345      C1346   1.401   1_655  A
C1345      N1352   1.439       .  S
C1346      C1347   1.411       .  A
C1346      H1351   1.083       .  S
C1347      C1348   1.415       .  A
C1348      N1349   1.426       .  S
N1349      H1353   1.046       .  S
N1349      H1354   1.035       .  S
N1352      H1355   1.046   1_655  S
N1352      H1356   1.046       .  S
C1357      C1358   1.404       .  A
C1357      C1362   1.409       .  A
C1357      H1364   1.084       .  S
C1358      C1359   1.408       .  A
C1359      C1360   1.409       .  A
C1359      N1366   1.437       .  S
C1360      C1361   1.407       .  A
C1360      H1365   1.078       .  S
C1361      C1362   1.413       .  A
C1362      N1363   1.438       .  S
N1363      H1367   1.046       .  S
N1363      H1368   1.046       .  S
N1366      H1369   1.046       .  S
N1366      H1370   1.046       .  S
C1371      C1372   1.401       .  A
C1371      C1376   1.409       .  A
C1371      H1378   1.084       .  S
C1372      C1373   1.405       .  A
C1373      C1374   1.398       .  A
C1373      N1380   1.438       .  S
C1374      C1375   1.407       .  A
C1374      H1379   1.084       .  S
C1375      C1376   1.415       .  A
C1376      N1377   1.434       .  S
N1377      H1381   1.046       .  S
N1377      H1382   1.042       .  S
N1380      H1383   1.046       .  S
N1380      H1384   1.046       .  S
C1385      C1386   1.406       .  A
C1385      C1390   1.404       .  A
C1385      H1392   1.084       .  S
C1386      C1387   1.417       .  A
C1387      C1388   1.395       .  A
C1387      N1394   1.438       .  S
C1388      C1389   1.401       .  A
C1388      H1393   1.085       .  S
C1389      C1390   1.405       .  A
C1390      N1391   1.437       .  S
N1391      H1395   1.046       .  S
N1391      H1396   1.046       .  S
N1394      H1397   1.041       .  S
N1394      H1398   1.046       .  S
C1399      C1400   1.399       .  A
C1399      C1404   1.403       .  A
C1399      H1406   1.084       .  S
C1400      C1401   1.409       .  A
C1401      C1402   1.410       .  A
C1401      N1408   1.437   1_554  S
C1402      C1403   1.405       .  A
C1402      H1407   1.079   1_554  S
C1403      C1404   1.417       .  A
C1404      N1405   1.439       .  S
N1405      H1409   1.046       .  S
N1405      H1410   1.046       .  S
N1408      H1411   1.046       .  S
N1408      H1412   1.046       .  S
C1413      C1414   1.407       .  A
C1413      C1418   1.407       .  A
C1413      H1420   1.084       .  S
C1414      C1415   1.412       .  A
C1415      C1416   1.389       .  A
C1415      N1422   1.432       .  S
C1416      C1417   1.399       .  A
C1416      H1421   1.084       .  S
C1417      C1418   1.414       .  A
C1418      N1419   1.437       .  S
N1419      H1423   1.046       .  S
N1419      H1424   1.042       .  S
N1422      H1425   1.046       .  S
N1422      H1426   1.041       .  S
C1427      C1428   1.413       .  A
C1427      C1432   1.397       .  A
C1427      H1434   1.083       .  S
C1428      C1429   1.435       .  A
C1429      C1430   1.404       .  A
C1429      N1436   1.435   1_554  S
C1430      C1431   1.394       .  A
C1430      H1435   1.085       .  S
C1431      C1432   1.406       .  A
C1432      N1433   1.433       .  S
N1433      H1437   1.045       .  S
N1433      H1438   1.046       .  S
N1436      H1439   1.031       .  S
N1436      H1440   1.045       .  S
C1441      C1442   1.404   1_455  A
C1441      C1446   1.405       .  A
C1441      H1448   1.080       .  S
C1442      C1443   1.409       .  A
C1443      C1444   1.411       .  A
C1443      N1450   1.437       .  S
C1444      C1445   1.405       .  A
C1444      H1449   1.084       .  S
C1445      C1446   1.417   1_655  A
C1446      N1447   1.439       .  S
N1447      H1451   1.046       .  S
N1447      H1452   1.043       .  S
N1450      H1453   1.045       .  S
N1450      H1454   1.046       .  S
C1455      C1456   1.408   1_655  A
C1455      C1460   1.396       .  A
C1455      H1462   1.084       .  S
C1456      C1457   1.411       .  A
C1457      C1458   1.409       .  A
C1457      N1464   1.434       .  S
C1458      C1459   1.403       .  A
C1458      H1463   1.084       .  S
C1459      C1460   1.412   1_455  A
C1460      N1461   1.440       .  S
N1461      H1465   1.046       .  S
N1461      H1466   1.042       .  S
N1464      H1467   1.042       .  S
N1464      H1468   1.046       .  S
C1469      C1470   1.399   1_455  A
C1469      C1474   1.400       .  A
C1469      H1476   1.084       .  S
C1470      C1471   1.412       .  A
C1471      C1472   1.399       .  A
C1471      N1478   1.439       .  S
C1472      C1473   1.411   1_655  A
C1472      H1477   1.083       .  S
C1473      C1474   1.421       .  A
C1474      N1475   1.428       .  S
N1475      H1479   1.040       .  S
N1475      H1480   1.044       .  S
N1478      H1481   1.043       .  S
N1478      H1482   1.046       .  S
C1483      C1484   1.409   1_655  A
C1483      C1488   1.392       .  A
C1483      H1490   1.084       .  S
C1484      C1485   1.427       .  A
C1485      C1486   1.402       .  A
C1485      N1492   1.435       .  S
C1486      C1487   1.399   1_455  A
C1486      H1491   1.084       .  S
C1487      C1488   1.408       .  A
C1488      N1489   1.438       .  S
N1489      H1493   1.046       .  S
N1489      H1494   1.043       .  S
N1492      H1495   1.035       .  S
N1492      H1496   1.045       .  S
C1497      C1498   1.410       .  A
C1497      C1502   1.408       .  A
C1497      H1504   1.083       .  S
C1498      C1499   1.416       .  A
C1499      C1500   1.409       .  A
C1499      N1506   1.435       .  S
C1500      C1501   1.401       .  A
C1500      H1505   1.084       .  S
C1501      C1502   1.407       .  A
C1502      N1503   1.438       .  S
N1503      H1507   1.046       .  S
N1503      H1508   1.046       .  S
N1506      H1509   1.043   1_565  S
N1506      H1510   1.046   1_565  S
C1511      C1512   1.409       .  A
C1511      C1516   1.396       .  A
C1511      H1518   1.084       .  S
C1512      C1513   1.420       .  A
C1513      C1514   1.415       .  A
C1513      N1520   1.433   1_565  S
C1514      C1515   1.402       .  A
C1514      H1519   1.084       .  S
C1515      C1516   1.412       .  A
C1516      N1517   1.433       .  S
N1517      H1521   1.043       .  S
N1517      H1522   1.046       .  S
N1520      H1523   1.042       .  S
N1520      H1524   1.046       .  S
C1525      C1526   1.408       .  A
C1525      C1530   1.416       .  A
C1525      H1532   1.083       .  S
C1526      C1527   1.422       .  A
C1527      C1528   1.395       .  A
C1527      N1534   1.433       .  S
C1528      C1529   1.398       .  A
C1528      H1533   1.083       .  S
C1529      C1530   1.412       .  A
C1530      N1531   1.431       .  S
N1531      H1535   1.045       .  S
N1531      H1536   1.043       .  S
N1534      H1537   1.045       .  S
N1534      H1538   1.041       .  S
C1539      C1540   1.400       .  A
C1539      C1544   1.408       .  A
C1539      H1546   1.081       .  S
C1540      C1541   1.405       .  A
C1541      C1542   1.407       .  A
C1541      N1548   1.438       .  S
C1542      C1543   1.411       .  A
C1542      H1547   1.083       .  S
C1543      C1544   1.417       .  A
C1544      N1545   1.437       .  S
N1545      H1549   1.046       .  S
N1545      H1550   1.046       .  S
N1548      H1551   1.044       .  S
N1548      H1552   1.045       .  S
C1553      C1554   1.399       .  A
C1553      C1558   1.407       .  A
C1553      H1560   1.074       .  S
C1554      C1555   1.414       .  A
C1555      C1556   1.407       .  A
C1555      N1562   1.434       .  S
C1556      C1557   1.400       .  A
C1556      H1561   1.084       .  S
C1557      C1558   1.414       .  A
C1558      N1559   1.438       .  S
N1559      H1563   1.046       .  S
N1559      H1564   1.045       .  S
N1562      H1565   1.045       .  S
N1562      H1566   1.046       .  S
C1567      C1568   1.411       .  A
C1567      C1572   1.402       .  A
C1567      H1574   1.083       .  S
C1568      C1569   1.415       .  A
C1569      C1570   1.404       .  A
C1569      N1576   1.422       .  S
C1570      C1571   1.395       .  A
C1570      H1575   1.084       .  S
C1571      C1572   1.414       .  A
C1572      N1573   1.432       .  S
N1573      H1577   1.042       .  S
N1573      H1578   1.046       .  S
N1576      H1579   1.038       .  S
N1576      H1580   1.046       .  S
C1581      C1582   1.402       .  A
C1581      C1586   1.409       .  A
C1581      H1588   1.084       .  S
C1582      C1583   1.410       .  A
C1583      C1584   1.396       .  A
C1583      N1590   1.440       .  S
C1584      C1585   1.410       .  A
C1584      H1589   1.084       .  S
C1585      C1586   1.428       .  A
C1586      N1587   1.438       .  S
N1587      H1591   1.045       .  S
N1587      H1592   1.037       .  S
N1590      H1593   1.043       .  S
N1590      H1594   1.046       .  S
C1595      C1596   1.406       .  A
C1595      C1600   1.406       .  A
C1595      H1602   1.082       .  S
C1596      C1597   1.411       .  A
C1597      C1598   1.405       .  A
C1597      N1604   1.438       .  S
C1598      C1599   1.405       .  A
C1598      H1603   1.084       .  S
C1599      C1600   1.418       .  A
C1600      N1601   1.438       .  S
N1601      H1605   1.046       .  S
N1601      H1606   1.042       .  S
N1604      H1607   1.046       .  S
N1604      H1608   1.046       .  S
