geometry optimzed in LAMMPS
_audit_creation_date              2020-11-30 
_audit_creation_method            'lammps2cif' 
_symmetry_space_group_name_H-M    'P1' 
_symmetry_Int_Tables_number       1 
_symmetry_cell_setting            triclinic 
loop_ 
_symmetry_equiv_pos_as_xyz 
  x,y,z 
_cell_length_a                    34.406991296029744 
_cell_length_b                    35.26856666945653 
_cell_length_c                    31.13891429500288 
_cell_angle_alpha                 90.85228517939319 
_cell_angle_beta                  89.35557507771355 
_cell_angle_gamma                 119.82465512796398 
loop_ 
_atom_site_label 
_atom_site_type_symbol 
_atom_site_fract_x 
_atom_site_fract_y 
_atom_site_fract_z 
_atom_site_charge 
C1          C  0.33384761  0.17801564  0.04434742    -0.03570
C2          C  0.33524725  0.16669740  0.24279135    -0.03570
C3          C  0.16359369  0.33837545  0.74057698    -0.03570
C4          C  0.16150941  0.34051850  0.54270197    -0.03570
N5          N  0.00668159  0.48634796  0.99095845    -0.07200
N6          N  0.02551473  0.99973142  0.02889529    -0.59320
N7          N  0.42979431  0.40678085  0.93144343    -0.06880
N8          N  0.39777498  0.36818660  0.94489703    -0.61450
N9          N  0.46849599  0.40748327  0.93075329    -0.06480
N10         N  0.46324697  0.36959942  0.94331677    -0.59290
N11         N  0.46872767  0.48671481  0.98970178    -0.06150
N12         N  0.46092512  0.00052105  0.02630239    -0.61800
C13         C  0.99666462  0.00880184  0.05027733     0.94980
C14         C  0.41900881  0.34509895  0.95128064     0.94760
N15         N  0.40503827  0.48412085  0.84235981    -0.07380
N16         N  0.37603966  0.47150541  0.81057306    -0.59900
N17         N  0.42662009  0.03125896  0.93833444    -0.05500
N18         N  0.40927601  0.04404544  0.96958076    -0.61150
N19         N  0.44283962  0.06061835  0.90781534    -0.07410
N20         N  0.43666442  0.09392337  0.91760496    -0.60160
N21         N  0.39000740  0.45476166  0.87288445    -0.05150
N22         N  0.35030214  0.42162449  0.86253367    -0.61240
Mn23       Mn  0.42747415  0.46884805  0.93326056     1.18440
C24         C  0.34224386  0.43227662  0.82325777     0.97060
C25         C  0.41628178  0.08339782  0.95658501     0.97720
N26         N  0.05800075  0.45572397  0.87399583    -0.07430
N27         N  0.06375939  0.42254015  0.86296142    -0.63740
N28         N  0.11144806  0.06020677  0.91091669    -0.06240
N29         N  0.15122895  0.09256334  0.92265763    -0.64420
N30         N  0.09541087  0.03021685  0.94078129    -0.06940
N31         N  0.12332259  0.04138134  0.97326235    -0.64010
N32         N  0.07340508  0.48517347  0.84360395    -0.05840
N33         N  0.08915637  0.47250353  0.81101038    -0.64700
Mn34       Mn  0.03240832  0.46903198  0.93426646     1.10660
C35         C  0.08254919  0.43323656  0.82323113     0.98280
C36         C  0.15813629  0.08019785  0.96178154     0.98360
N37         N  0.03339654  0.10802425  0.85172291    -0.06950
N38         N  0.03911303  0.14523152  0.83675646    -0.62320
N39         N  0.03341550  0.03060371  0.79226505    -0.06270
N40         N  0.04183186  0.01827480  0.75501793    -0.59050
N41         N  0.49494615  0.02996785  0.79133723    -0.07580
N42         N  0.47647476  0.01742383  0.75318658    -0.61890
N43         N  0.07203002  0.10852848  0.85184973    -0.06560
N44         N  0.10417280  0.14592039  0.83630934    -0.59070
Mn45       Mn  0.46869440  0.04644636  0.84814263     1.20190
Mn46       Mn  0.07388720  0.04717035  0.84975343     1.10090
Cl47       Cl  0.50056293  0.00789502  0.89134168    -0.87040
C48         C  0.08322433  0.16859202  0.82726409     0.95290
C49         C  0.50620633  0.51027061  0.73093755     0.95090
N50         N  0.43649216  0.05130857  0.37397495    -0.07200
N51         N  0.43299519  0.08493204  0.36055737    -0.59320
N52         N  0.38623894  0.44676384  0.41165469    -0.06880
N53         N  0.34774122  0.41284453  0.42351440    -0.61450
N54         N  0.40104637  0.47723198  0.44168059    -0.06480
N55         N  0.37337172  0.46451956  0.47477900    -0.59290
N56         N  0.42068763  0.02015545  0.34464184    -0.06150
N57         N  0.40650958  0.03175199  0.31090273    -0.61800
C58         C  0.41419768  0.07211099  0.32092429     0.94980
C59         C  0.34078718  0.42400792  0.46351470     0.94760
N60         N  0.46466240  0.40044701  0.34974355    -0.07380
N61         N  0.45875618  0.36257878  0.33510204    -0.59900
N62         N  0.46210516  0.47585298  0.29220124    -0.05500
N63         N  0.45262418  0.98705754  0.25554557    -0.61150
N64         N  0.00095162  0.47734147  0.29004864    -0.07410
N65         N  0.01877917  0.98925776  0.25155814    -0.60160
N66         N  0.42584492  0.39934358  0.35241049    -0.05150
N67         N  0.39309547  0.36077816  0.33977842    -0.61240
Mn68       Mn  0.42247512  0.45963647  0.35040660     1.18440
C69         C  0.41401096  0.33811210  0.32968532     0.97060
C70         C  0.98796332  0.99494516  0.23059260     0.97720
N71         N  0.48961002  0.02590978  0.49086695    -0.07430
N72         N  0.47014305  0.01232112  0.52850680    -0.63740
N73         N  0.06536285  0.10402192  0.43004696    -0.06240
N74         N  0.09762926  0.14266269  0.44329935    -0.64420
N75         N  0.02660916  0.10322994  0.43100009    -0.06940
N76         N  0.03230235  0.14128761  0.44501914    -0.64010
N77         N  0.02789653  0.02614103  0.48935316    -0.05840
N78         N  0.03522509  0.01256172  0.52577223    -0.64700
Mn79       Mn  0.46288021  0.04052013  0.43450557     1.10660
C80         C  0.49878121  0.50376728  0.54978791     0.98140
C81         C  0.07688545  0.16597756  0.45202939     0.98360
N82         N  0.09020501  0.02606646  0.33921969    -0.06950
N83         N  0.11798923  0.03838461  0.30621595    -0.62320
N84         N  0.06945930  0.48051701  0.43608827    -0.06270
N85         N  0.08320915  0.46636030  0.46845891    -0.59050
N86         N  0.05386168  0.45107855  0.40508982    -0.07580
N87         N  0.05689993  0.41655438  0.41559934    -0.61890
N88         N  0.10549253  0.05625978  0.36958840    -0.06560
N89         N  0.14435358  0.08985948  0.35766363    -0.59070
Mn90       Mn  0.02810923  0.46309673  0.34584690     1.20190
Mn91       Mn  0.06868158  0.04277812  0.43147182     1.10090
Cl92       Cl  0.49573108  0.00175277  0.39058385    -0.87040
C93         C  0.15118773  0.07852066  0.31756245     0.95290
C94         C  0.07524922  0.42633042  0.45526736     0.95090
C95         C  0.46096993  0.98617344  0.66514447    -0.10240
C96         C  0.50215776  0.49937815  0.68511156     0.05960
C97         C  0.03929420  0.50562966  0.66001241    -0.04000
C98         C  0.03526546  0.50192546  0.61577569    -0.08450
C99         C  0.49577218  0.49418679  0.59561146     0.05080
C100        C  0.45743510  0.98370644  0.62058258    -0.03480
Br101      Br  0.39977633  0.96708953  0.59664282    -0.03170
H102        H  0.43178134  0.97977201  0.68412575     0.08990
H103        H  0.06479675  0.50903603  0.59703979     0.07010
Br104      Br  0.09857289  0.52523202  0.68163381    -0.03600
C105        C  0.45428412  0.49065789  0.11653254    -0.10240
C106        C  0.99616054  0.01334006  0.09653389     0.05960
C107        C  0.03546049  0.03380636  0.12113408    -0.04000
C108        C  0.03213402  0.02898235  0.16555315    -0.08450
C109        C  0.99012390  0.00377117  0.18512505     0.05080
C110        C  0.45085953  0.48485103  0.16034380    -0.03480
Br111      Br  0.39186684  0.44523298  0.18214566    -0.03170
H112        H  0.42386760  0.47415672  0.09773272     0.08990
H113        H  0.06236587  0.04398387  0.18469786     0.07010
Br114      Br  0.09376129  0.06839019  0.09586594    -0.03600
C115        C  0.07206437  0.22148236  0.49989009    -0.10240
C116        C  0.09834046  0.20899610  0.47537515     0.05960
C117        C  0.14452350  0.23810637  0.47351639    -0.04000
C118        C  0.16335351  0.27787049  0.49600633    -0.08450
C119        C  0.13848810  0.29147532  0.52300578     0.05080
C120        C  0.09057486  0.26182808  0.52218943    -0.03480
Br121      Br  0.04483652  0.27486429  0.54206298    -0.03170
H122        H  0.03606785  0.20014827  0.50047811     0.08990
H123        H  0.19769280  0.29869317  0.48773549     0.07010
Br124      Br  0.18423899  0.22837584  0.43684882    -0.03600
C125        C  0.12233841  0.35229508  0.48001234    -0.10240
C126        C  0.13341055  0.36046908  0.52436762     0.05960
C127        C  0.11968768  0.38789643  0.54639391    -0.04000
C128        C  0.09890627  0.40711642  0.52344397    -0.08450
C129        C  0.08977873  0.39934317  0.47929808     0.05080
C130        C  0.09935126  0.36930238  0.45835293    -0.03480
Br131      Br  0.08504284  0.35112626  0.39936017    -0.03170
H132        H  0.13273893  0.33294130  0.46102558     0.08990
H133        H  0.09130192  0.42987450  0.54007165     0.07010
Br134      Br  0.13273493  0.40778740  0.60495730    -0.03600
C135        C  0.26907872  0.42013910  0.47612654    -0.10240
C136        C  0.29687745  0.40319015  0.48476757     0.05960
C137        C  0.28445635  0.37152973  0.51656023    -0.04000
C138        C  0.24236726  0.35451141  0.53650990    -0.08450
C139        C  0.21099148  0.36777749  0.52476801     0.05080
C140        C  0.22813018  0.40519476  0.49708245    -0.03480
Br141      Br  0.20768977  0.44680105  0.49152473    -0.03170
H142        H  0.28087148  0.44748333  0.45435491     0.08990
H143        H  0.23272084  0.32857258  0.55954433     0.07010
Br144      Br  0.32363234  0.35037399  0.53312346    -0.03600
C145        C  0.14896372  0.25936744  0.74595322    -0.10240
C146        C  0.13561664  0.29010033  0.75778620     0.05960
C147        C  0.09695413  0.27380272  0.78575812    -0.04000
C148        C  0.08332052  0.23581815  0.80896576    -0.08450
C149        C  0.10256409  0.20964242  0.80249496     0.05080
C150        C  0.13417974  0.22041619  0.76891614    -0.03480
Br151      Br  0.15781778  0.18331859  0.75212203    -0.03170
H152        H  0.17447961  0.26775609  0.72145048     0.08990
H153        H  0.05572500  0.22558055  0.83150514     0.07010
Br154      Br  0.05291827  0.29266561  0.79032400    -0.03600
C155        C  0.12692169  0.39664197  0.82517900    -0.10240
C156        C  0.10266614  0.41019343  0.80069372     0.05960
C157        C  0.09949221  0.40258051  0.75601978    -0.04000
C158        C  0.12017506  0.38092050  0.73662262    -0.08450
C159        C  0.14345319  0.36522922  0.76130734     0.05080
C160        C  0.14672552  0.37423582  0.80678022    -0.03480
Br161      Br  0.17173965  0.35293765  0.84882990    -0.03170
H162        H  0.12965481  0.40269818  0.85955818     0.08990
H163        H  0.11644479  0.37526564  0.70238118     0.07010
Br164      Br  0.06345428  0.41690453  0.72077916    -0.03600
C165        C  0.28414358  0.43036742  0.77549011    -0.10240
C166        C  0.29964632  0.40738611  0.79938446     0.05960
C167        C  0.27342005  0.36178229  0.80108392    -0.04000
C168        C  0.23206113  0.34018690  0.78020428    -0.08450
C169        C  0.21394605  0.36255073  0.75733235     0.05080
C170        C  0.24222977  0.40932520  0.75545911    -0.03480
Br171      Br  0.22730109  0.44896015  0.72753752    -0.03170
H172        H  0.30413501  0.46566289  0.77384343     0.08990
H173        H  0.21375234  0.30588766  0.78603780     0.07010
Br174      Br  0.29163651  0.32646866  0.83201338    -0.03600
C175        C  0.12689052  0.30894109  0.61822628    -0.10240
C176        C  0.16355520  0.34035494  0.59410551     0.05960
C177        C  0.20088708  0.37042515  0.62001846    -0.04000
C178        C  0.20151332  0.36453056  0.66461840    -0.08450
C179        C  0.16274364  0.33713572  0.68905059     0.05080
C180        C  0.12444685  0.30936101  0.66356248    -0.03480
Br181      Br  0.06585375  0.27025946  0.68560599    -0.03170
H182        H  0.09866472  0.28339715  0.60250643     0.08990
H183        H  0.23320720  0.38468209  0.67974392     0.07010
Br184      Br  0.24965179  0.42645693  0.60219790    -0.03600
C185        C  0.25840266  0.16006837  0.26101109    -0.10240
C186        C  0.28468047  0.13881807  0.26024478     0.05960
C187        C  0.26345435  0.09684666  0.28175092    -0.04000
C188        C  0.21850418  0.07696125  0.29459729    -0.08450
C189        C  0.19495730  0.09939114  0.29536762     0.05080
C190        C  0.21516184  0.14143053  0.27869092    -0.03480
Br191      Br  0.18501927  0.17479386  0.27976346    -0.03170
H192        H  0.27287219  0.19376837  0.25157332     0.08990
H193        H  0.20298518  0.04506466  0.30954691     0.07010
Br194      Br  0.28926882  0.06742275  0.31211448    -0.03600
C195        C  0.37074060  0.25807015  0.33081665    -0.10240
C196        C  0.39212301  0.29588537  0.30681884     0.05960
C197        C  0.39305924  0.29278035  0.26180150    -0.04000
C198        C  0.37393056  0.25165139  0.24145120    -0.08450
C199        C  0.35395746  0.21245497  0.26535851     0.05080
C200        C  0.35216650  0.21693746  0.31125257    -0.03480
Br201      Br  0.32953585  0.17032328  0.35191210    -0.03170
H202        H  0.36992081  0.26063974  0.36552412     0.08990
H203        H  0.37675649  0.25113809  0.20692955     0.07010
Br204      Br  0.42081112  0.34405974  0.22687947    -0.03600
C205        C  0.35285765  0.10414239  0.24060535    -0.10240
C206        C  0.36450328  0.14629354  0.25630830     0.05960
C207        C  0.40419419  0.16737099  0.28217193    -0.04000
C208        C  0.41947259  0.14237687  0.30260467    -0.08450
C209        C  0.40150288  0.09805643  0.29315279     0.05080
C210        C  0.37139197  0.08016265  0.25816212    -0.03480
Br211      Br  0.34799747  0.02140807  0.23690222    -0.03170
H212        H  0.32629626  0.08830509  0.21718700     0.08990
H213        H  0.44698453  0.15822808  0.32506303     0.07010
Br214      Br  0.44728260  0.22905365  0.28385573    -0.03600
C215        C  0.25383873  0.11254362  0.04155548    -0.10240
C216        C  0.28320129  0.15652088  0.03012714     0.05960
C217        C  0.26398142  0.17649671  0.00417855    -0.04000
C218        C  0.22390441  0.15053967  0.98235141    -0.08450
C219        C  0.19895321  0.10557677  0.98831931     0.05080
C220        C  0.21306438  0.08679365  0.02012617    -0.03480
Br221      Br  0.18176419  0.02547190  0.03271254    -0.03170
H222        H  0.26525694  0.09665294  0.06354316     0.08990
H223        H  0.21121897  0.16605532  0.96128192     0.07010
Br224      Br  0.28228796  0.23787983  0.00115076    -0.03600
C225        C  0.40075529  0.30479746  0.02042273    -0.10240
C226        C  0.39961571  0.30376806  0.97537613     0.05960
C227        C  0.38210702  0.26354763  0.95409329    -0.04000
C228        C  0.36315805  0.22499601  0.97767741    -0.08450
C229        C  0.36062411  0.22446320  0.02352717     0.05080
C230        C  0.38251673  0.26621069  0.04476221    -0.03480
Br231      Br  0.39260042  0.27627911  0.10541573    -0.03170
H232        H  0.41639915  0.33618831  0.03688008     0.08990
H233        H  0.34787700  0.19465878  0.95949625     0.07010
Br234      Br  0.38134888  0.25954535  0.89257074    -0.03600
C235        C  0.33184441  0.11587887  0.99409889    -0.10240
C236        C  0.35635200  0.15205028  0.02259477     0.05960
C237        C  0.40370109  0.16735945  0.02437591    -0.04000
C238        C  0.42245484  0.14456736  0.00322627    -0.08450
C239        C  0.39624167  0.10729684  0.97828215     0.05080
C240        C  0.35079324  0.09343941  0.97340807    -0.03480
Br241      Br  0.31338602  0.04504113  0.93629618    -0.03170
H242        H  0.29807508  0.10532881  0.98466118     0.08990
H243        H  0.45803489  0.15636403  0.00596438     0.07010
Br244      Br  0.44668470  0.22003727  0.05350930    -0.03600
C245        C  0.36069042  0.16205876  0.11750716    -0.10240
C246        C  0.33393479  0.17576941  0.09585454     0.05960
C247        C  0.30640801  0.18502142  0.12402672    -0.04000
C248        C  0.30678620  0.18052160  0.16916337    -0.08450
C249        C  0.33621486  0.17005763  0.19093336     0.05080
C250        C  0.36645544  0.16480652  0.16246565    -0.03480
Br251      Br  0.42380945  0.17146547  0.17752143    -0.03170
H252        H  0.38052995  0.15140063  0.10000020     0.08990
H253        H  0.28463091  0.18799083  0.18674680     0.07010
Br254      Br  0.26770793  0.20627290  0.10588444    -0.03600
C255        C  0.33384353  0.67800943  0.04434580    -0.03570
C256        C  0.33523648  0.66669477  0.24279054    -0.03570
C257        C  0.16357908  0.83837965  0.74057826    -0.03570
C258        C  0.16150950  0.84052442  0.54270099    -0.03570
N259        N  0.00664914  0.98635618  0.99097702    -0.07200
N260        N  0.02555438  0.49970966  0.02887548    -0.59320
N261        N  0.42978571  0.90677834  0.93144920    -0.06880
N262        N  0.39776609  0.86818102  0.94489582    -0.61450
N263        N  0.46849104  0.90748801  0.93077433    -0.06480
N264        N  0.46324455  0.86960623  0.94334137    -0.59290
N265        N  0.46869061  0.98671332  0.98970688    -0.06150
N266        N  0.46097270  0.50051676  0.02630544    -0.61800
C267        C  0.99671335  0.50878256  0.05027113     0.94980
C268        C  0.41900430  0.84509938  0.95129130     0.94760
N269        N  0.40503679  0.98410531  0.84234137    -0.07380
N270        N  0.37603948  0.97149034  0.81055333    -0.59900
N271        N  0.42665063  0.53127246  0.93835499    -0.05500
N272        N  0.40931006  0.54405880  0.96960489    -0.61150
N273        N  0.44286541  0.56063176  0.90783579    -0.07410
N274        N  0.43669048  0.59393612  0.91762854    -0.60160
N275        N  0.39000219  0.95474743  0.87286743    -0.05150
N276        N  0.35029601  0.92161210  0.86251637    -0.61240
Mn277      Mn  0.42745387  0.96883956  0.93325319     1.18440
C278        C  0.34224108  0.93226316  0.82323871     0.97060
C279        C  0.41631410  0.58341142  0.95661120     0.97720
N280        N  0.05800958  0.95573572  0.87403600    -0.07430
N281        N  0.06376773  0.92255094  0.86300274    -0.63740
N282        N  0.11146159  0.56019398  0.91088070    -0.06240
N283        N  0.15124272  0.59255048  0.92262195    -0.64420
N284        N  0.09542726  0.53020113  0.94074253    -0.06940
N285        N  0.12334061  0.54136306  0.97322161    -0.64010
N286        N  0.07341639  0.98518482  0.84364376    -0.05840
N287        N  0.08916878  0.97251459  0.81105178    -0.64700
Mn288      Mn  0.03239736  0.96904204  0.93429730     1.10660
C289        C  0.08256038  0.93324772  0.82327307     0.98280
C290        C  0.15815290  0.58018088  0.96174282     0.98360
N291        N  0.03340722  0.60802915  0.85172433    -0.06950
N292        N  0.03912180  0.64523705  0.83676221    -0.62320
N293        N  0.03339793  0.53060458  0.79225057    -0.06270
N294        N  0.04179744  0.51826864  0.75499980    -0.59050
N295        N  0.49493166  0.52997556  0.79133662    -0.07580
N296        N  0.47644572  0.51742954  0.75319207    -0.61890
N297        N  0.07203871  0.60852889  0.85183467    -0.06560
N298        N  0.10417791  0.64591881  0.83628647    -0.59070
Mn299      Mn  0.46870068  0.54645692  0.84815338     1.20190
Mn300      Mn  0.07388650  0.54716498  0.84972623     1.10090
Cl301      Cl  0.50057230  0.50789605  0.89133177    -0.87040
C302        C  0.08322941  0.66859371  0.82725433     0.95290
C303        C  0.50624757  0.01027382  0.73094319     0.95090
N304        N  0.43650418  0.55132062  0.37395142    -0.07200
N305        N  0.43300493  0.58494249  0.36053394    -0.59320
N306        N  0.38624806  0.94675164  0.41168023    -0.06880
N307        N  0.34775140  0.91283316  0.42354316    -0.61450
N308        N  0.40106036  0.97721958  0.44170634    -0.06480
N309        N  0.37338974  0.96450731  0.47480807    -0.59290
N310        N  0.42070627  0.52016927  0.34461641    -0.06150
N311        N  0.40653082  0.53176592  0.31087537    -0.61800
C312        C  0.41421389  0.57212309  0.32089852     0.94980
C313        C  0.34080267  0.92399575  0.46354573     0.94760
N314        N  0.46466523  0.90044831  0.34972995    -0.07380
N315        N  0.45875836  0.86258206  0.33508125    -0.59900
N316        N  0.46207750  0.97584707  0.29220410    -0.05500
N317        N  0.45266370  0.48705832  0.25553402    -0.61150
N318        N  0.00092757  0.97734405  0.29003669    -0.07410
N319        N  0.01881261  0.48924321  0.25157217    -0.60160
N320        N  0.42584614  0.89933991  0.35241429    -0.05150
N321        N  0.39309508  0.86077315  0.33978781    -0.61240
Mn322      Mn  0.42246650  0.95962728  0.35042206     1.18440
C323        C  0.41401138  0.83811162  0.32967883     0.97060
C324        C  0.98800625  0.49493289  0.23059212     0.97720
N325        N  0.48957949  0.52591139  0.49086308    -0.07430
N326        N  0.47009748  0.51231764  0.52849625    -0.63740
N327        N  0.06535782  0.60402049  0.43005917    -0.06240
N328        N  0.09762402  0.64265902  0.44331682    -0.64420
N329        N  0.02660679  0.60323427  0.43099914    -0.06940
N330        N  0.03230166  0.64129368  0.44501486    -0.64010
N331        N  0.02786286  0.52613601  0.48936170    -0.05840
N332        N  0.03517370  0.51254630  0.52578233    -0.64700
Mn333      Mn  0.46287190  0.54052833  0.43449143     1.10660
C334        C  0.49883917  0.00378094  0.54978939     0.98140
C335        C  0.07688326  0.66597865  0.45203654     0.98360
N336        N  0.09021094  0.52605708  0.33925219    -0.06950
N337        N  0.11799643  0.53837589  0.30624971    -0.62320
N338        N  0.06948145  0.98052759  0.43605480    -0.06270
N339        N  0.08323519  0.96637279  0.46842342    -0.59050
N340        N  0.05388012  0.95108793  0.40505727    -0.07580
N341        N  0.05692029  0.91656419  0.41556611    -0.61890
N342        N  0.10549442  0.55625141  0.36961987    -0.06560
N343        N  0.14435472  0.58985294  0.35769568    -0.59070
Mn344      Mn  0.02810742  0.96310231  0.34582298     1.20190
Mn345      Mn  0.06866739  0.54277198  0.43149428     1.10090
Cl346      Cl  0.49572787  0.50175440  0.39058810    -0.87040
C347        C  0.15119197  0.57851325  0.31759579     0.95290
C348        C  0.07527471  0.92634302  0.45523247     0.95090
C349        C  0.46091659  0.48620153  0.66514463    -0.10240
C350        C  0.50221719  0.99938946  0.68511555     0.05960
C351        C  0.03937221  0.00568757  0.66001947    -0.04000
C352        C  0.03535263  0.00199276  0.61578077    -0.08450
C353        C  0.49584444  0.99420751  0.59561391     0.05080
C354        C  0.45737609  0.48373255  0.62058299    -0.03480
Br355      Br  0.39973159  0.46718388  0.59664924    -0.03170
H356        H  0.43174050  0.47983637  0.68412814     0.08990
H357        H  0.06489583  0.00914213  0.59704628     0.07010
Br358      Br  0.09865575  0.02533624  0.68165278    -0.03600
C359        C  0.45423346  0.99071488  0.11653932    -0.10240
C360        C  0.99621072  0.51329849  0.09652925     0.05960
C361        C  0.03551031  0.53376889  0.12112975    -0.04000
C362        C  0.03218270  0.52894910  0.16554950    -0.08450
C363        C  0.99017206  0.50373682  0.18512026     0.05080
C364        C  0.45080939  0.98490377  0.16035098    -0.03480
Br365      Br  0.39181326  0.94529835  0.18215325    -0.03170
H366        H  0.42381571  0.97422244  0.09774043     0.08990
H367        H  0.06241311  0.54395934  0.18469630     0.07010
Br368      Br  0.09381047  0.56835703  0.09586167    -0.03600
C369        C  0.07206129  0.72148917  0.49988858    -0.10240
C370        C  0.09833808  0.70899786  0.47538148     0.05960
C371        C  0.14452223  0.73810441  0.47352859    -0.04000
C372        C  0.16335240  0.77786993  0.49601606    -0.08450
C373        C  0.13848620  0.79147987  0.52300802     0.05080
C374        C  0.09057225  0.76183639  0.52218565    -0.03480
Br375      Br  0.04483517  0.77488069  0.54204412    -0.03170
H376        H  0.03606416  0.70015813  0.50047149     0.08990
H377        H  0.19769329  0.79868989  0.48774847     0.07010
Br378      Br  0.18423998  0.72836700  0.43687141    -0.03600
C379        C  0.12235664  0.85230509  0.47999747    -0.10240
C380        C  0.13341859  0.86047841  0.52435515     0.05960
C381        C  0.11969342  0.88790753  0.54637388    -0.04000
C382        C  0.09891782  0.90712798  0.52341583    -0.08450
C383        C  0.08980003  0.89935542  0.47926828     0.05080
C384        C  0.09937744  0.86931567  0.45832882    -0.03480
Br385      Br  0.08508801  0.85114839  0.39933208    -0.03170
H386        H  0.13275995  0.83295003  0.46101653     0.08990
H387        H  0.09131035  0.92988613  0.54003886     0.07010
Br388      Br  0.13273111  0.90780080  0.60493759    -0.03600
C389        C  0.26909897  0.92014021  0.47614639    -0.10240
C390        C  0.29689095  0.90318533  0.48479499     0.05960
C391        C  0.28445734  0.87152026  0.51658471    -0.04000
C392        C  0.24236439  0.85450616  0.53652569    -0.08450
C393        C  0.21099549  0.86777811  0.52477493     0.05080
C394        C  0.22814502  0.90519752  0.49709116    -0.03480
Br395      Br  0.20771050  0.94680723  0.49152152    -0.03170
H396        H  0.28089998  0.94748607  0.45437574     0.08990
H397        H  0.23270916  0.82856516  0.55955935     0.07010
Br398      Br  0.32361926  0.85034973  0.53315323    -0.03600
C399        C  0.14895088  0.75937101  0.74593864    -0.10240
C400        C  0.13560195  0.79010098  0.75777815     0.05960
C401        C  0.09694014  0.77379849  0.78575101    -0.04000
C402        C  0.08331218  0.73581384  0.80895669    -0.08450
C403        C  0.10256112  0.70964279  0.80248296     0.05080
C404        C  0.13417338  0.72041986  0.76890025    -0.03480
Br405      Br  0.15781771  0.68332898  0.75210073    -0.03170
H406        H  0.17446599  0.76776351  0.72143436     0.08990
H407        H  0.05571837  0.72557385  0.83149846     0.07010
Br408      Br  0.05290385  0.79266053  0.79032643    -0.03600
C409        C  0.12690899  0.89662680  0.82520597    -0.10240
C410        C  0.10266540  0.91019723  0.80072749     0.05960
C411        C  0.09949821  0.90260239  0.75605015    -0.04000
C412        C  0.12017137  0.88093708  0.73664386    -0.08450
C413        C  0.14344077  0.86523067  0.76132054     0.05080
C414        C  0.14671052  0.87422291  0.80679638    -0.03480
Br415      Br  0.17172089  0.85290978  0.84883475    -0.03170
H416        H  0.12963878  0.90267063  0.85958712     0.08990
H417        H  0.11644674  0.87529622  0.70240016     0.07010
Br418      Br  0.06349217  0.91697094  0.72081241    -0.03600
C419        C  0.28413596  0.93036337  0.77548466    -0.10240
C420        C  0.29964026  0.90737775  0.79936976     0.05960
C421        C  0.27341030  0.86177436  0.80106884    -0.04000
C422        C  0.23204689  0.84018326  0.78019715    -0.08450
C423        C  0.21393185  0.86255109  0.75733219     0.05080
C424        C  0.24221813  0.90932530  0.75546109    -0.03480
Br425      Br  0.22728990  0.94896444  0.72754816    -0.03170
H426        H  0.30412981  0.96565878  0.77383949     0.08990
H427        H  0.21373534  0.80588415  0.78603143     0.07010
Br428      Br  0.29162873  0.82645585  0.83198661    -0.03600
C429        C  0.12687552  0.80895682  0.61822452    -0.10240
C430        C  0.16354763  0.84036488  0.59410551     0.05960
C431        C  0.20087864  0.87043272  0.62002030    -0.04000
C432        C  0.20150122  0.86453849  0.66462069    -0.08450
C433        C  0.16272838  0.83714817  0.68905146     0.05080
C434        C  0.12443065  0.80938039  0.66356171    -0.03480
Br435      Br  0.06583381  0.77029087  0.68560369    -0.03170
H436        H  0.09865561  0.78342434  0.60250937     0.08990
H437        H  0.23319420  0.88468548  0.67974607     0.07010
Br438      Br  0.24964873  0.92646247  0.60220185    -0.03600
C439        C  0.25839043  0.66005816  0.26101746    -0.10240
C440        C  0.28467271  0.63881247  0.26025014     0.05960
C441        C  0.26345601  0.59684542  0.28176463    -0.04000
C442        C  0.21851051  0.57696101  0.29462599    -0.08450
C443        C  0.19495992  0.59938703  0.29539813     0.05080
C444        C  0.21515445  0.64142100  0.27870911    -0.03480
Br445      Br  0.18500409  0.67477703  0.27977955    -0.03170
H446        H  0.27285386  0.69375495  0.25157025     0.08990
H447        H  0.20299815  0.54506767  0.30958187     0.07010
Br448      Br  0.28928169  0.56742407  0.31211462    -0.03600
C449        C  0.37073609  0.75807046  0.33081311    -0.10240
C450        C  0.39211805  0.79588446  0.30681361     0.05960
C451        C  0.39304623  0.79277765  0.26179596    -0.04000
C452        C  0.37391314  0.75164778  0.24144701    -0.08450
C453        C  0.35394492  0.71245264  0.26535614     0.05080
C454        C  0.35215867  0.71693697  0.31125052    -0.03480
Br455      Br  0.32953436  0.67032530  0.35191274    -0.03170
H456        H  0.36992094  0.76064163  0.36552074     0.08990
H457        H  0.37673220  0.75113268  0.20692479     0.07010
Br458      Br  0.42079147  0.84405565  0.22687173    -0.03600
C459        C  0.35285612  0.60414667  0.24059505    -0.10240
C460        C  0.36449736  0.64629534  0.25630324     0.05960
C461        C  0.40419028  0.66737548  0.28216402    -0.04000
C462        C  0.41947696  0.64238434  0.30258818    -0.08450
C463        C  0.40151290  0.59806574  0.29313116     0.05080
C464        C  0.37139830  0.58017062  0.25814377    -0.03480
Br465      Br  0.34801056  0.52141838  0.23687886    -0.03170
H466        H  0.32629261  0.58830806  0.21717896     0.08990
H467        H  0.44699063  0.65823668  0.32504459     0.07010
Br468      Br  0.44727287  0.72905983  0.28385316    -0.03600
C469        C  0.25383995  0.61252961  0.04153649    -0.10240
C470        C  0.28319978  0.65650957  0.03011573     0.05960
C471        C  0.26398109  0.67648384  0.00416342    -0.04000
C472        C  0.22391178  0.65052515  0.98232519    -0.08450
C473        C  0.19896575  0.60556084  0.98828560     0.05080
C474        C  0.21307366  0.58677728  0.02009526    -0.03480
Br475      Br  0.18178184  0.52545281  0.03266974    -0.03170
H476        H  0.26525650  0.59663949  0.06352665     0.08990
H477        H  0.21122727  0.66604041  0.96125410     0.07010
Br478      Br  0.28227702  0.73786496  0.00114599    -0.03600
C479        C  0.40073972  0.80479322  0.02043084    -0.10240
C480        C  0.39960908  0.80376695  0.97538404     0.05960
C481        C  0.38210851  0.76354849  0.95409878    -0.04000
C482        C  0.36316002  0.72499532  0.97768024    -0.08450
C483        C  0.36061782  0.72445892  0.02352957     0.05080
C484        C  0.38250040  0.76620491  0.04476784    -0.03480
Br485      Br  0.39256725  0.77626959  0.10542345    -0.03170
H486        H  0.41637671  0.83618286  0.03689038     0.08990
H487        H  0.34788629  0.69465932  0.95949702     0.07010
Br488      Br  0.38136266  0.75955091  0.89257612    -0.03600
C489        C  0.33186038  0.61587927  0.99410098    -0.10240
C490        C  0.35635881  0.65205166  0.02259813     0.05960
C491        C  0.40370909  0.66736753  0.02438702    -0.04000
C492        C  0.42247089  0.64457784  0.00324707    -0.08450
C493        C  0.39626511  0.60730401  0.97830445     0.05080
C494        C  0.35081689  0.59344215  0.97342000    -0.03480
Br495      Br  0.31342073  0.54504099  0.93630620    -0.03170
H496        H  0.29809299  0.60532649  0.98465447     0.08990
H497        H  0.45805145  0.65637948  0.00599082     0.07010
Br498      Br  0.44668360  0.72005053  0.05351992    -0.03600
C499        C  0.36068589  0.66206085  0.11750894    -0.10240
C500        C  0.33392262  0.67575987  0.09585315     0.05960
C501        C  0.30638431  0.68499929  0.12402260    -0.04000
C502        C  0.30676126  0.68050033  0.16916003    -0.08450
C503        C  0.33620088  0.67005248  0.19093251     0.05080
C504        C  0.36645050  0.66481360  0.16246689    -0.03480
Br505      Br  0.42381313  0.67149407  0.17752414    -0.03170
H506        H  0.38053231  0.65140906  0.10000536     0.08990
H507        H  0.28459411  0.68795505  0.18674144     0.07010
Br508      Br  0.26766842  0.70623049  0.10587556    -0.03600
C509        C  0.83384761  0.17801564  0.04434742    -0.03570
C510        C  0.83524725  0.16669740  0.24279134    -0.03570
C511        C  0.66359369  0.33837545  0.74057698    -0.03570
C512        C  0.66150941  0.34051850  0.54270197    -0.03570
N513        N  0.50668159  0.48634797  0.99095845    -0.07200
N514        N  0.52551472  0.99973142  0.02889528    -0.59320
N515        N  0.92979431  0.40678084  0.93144343    -0.06880
N516        N  0.89777498  0.36818660  0.94489703    -0.61450
N517        N  0.96849599  0.40748327  0.93075328    -0.06480
N518        N  0.96324697  0.36959942  0.94331676    -0.59290
N519        N  0.96872766  0.48671481  0.98970177    -0.06150
N520        N  0.96092513  0.00052106  0.02630239    -0.61800
C521        C  0.49666461  0.00880183  0.05027732     0.94980
C522        C  0.91900881  0.34509894  0.95128064     0.94760
N523        N  0.90503827  0.48412085  0.84235981    -0.07380
N524        N  0.87603966  0.47150541  0.81057306    -0.59900
N525        N  0.92662009  0.03125896  0.93833445    -0.05500
N526        N  0.90927601  0.04404544  0.96958076    -0.61150
N527        N  0.94283962  0.06061835  0.90781534    -0.07410
N528        N  0.93666442  0.09392337  0.91760497    -0.60160
N529        N  0.89000740  0.45476166  0.87288445    -0.05150
N530        N  0.85030213  0.42162449  0.86253367    -0.61240
Mn531      Mn  0.92747415  0.46884805  0.93326056     1.18440
C532        C  0.84224386  0.43227662  0.82325777     0.97060
C533        C  0.91628178  0.08339782  0.95658501     0.97720
N534        N  0.55800075  0.45572397  0.87399583    -0.07430
N535        N  0.56375939  0.42254015  0.86296142    -0.63740
N536        N  0.61144805  0.06020677  0.91091669    -0.06240
N537        N  0.65122895  0.09256334  0.92265762    -0.64420
N538        N  0.59541087  0.03021685  0.94078128    -0.06940
N539        N  0.62332259  0.04138134  0.97326234    -0.64010
N540        N  0.57340509  0.48517347  0.84360395    -0.05840
N541        N  0.58915638  0.47250353  0.81101039    -0.64700
Mn542      Mn  0.53240832  0.46903198  0.93426646     1.10660
C543        C  0.58254920  0.43323656  0.82323113     0.98280
C544        C  0.65813629  0.08019785  0.96178154     0.98360
N545        N  0.53339654  0.10802425  0.85172291    -0.06950
N546        N  0.53911303  0.14523153  0.83675646    -0.62320
N547        N  0.53341550  0.03060372  0.79226504    -0.06270
N548        N  0.54183186  0.01827480  0.75501793    -0.59050
N549        N  0.99494615  0.02996784  0.79133723    -0.07580
N550        N  0.97647476  0.01742383  0.75318658    -0.61890
N551        N  0.57203001  0.10852848  0.85184973    -0.06560
N552        N  0.60417280  0.14592040  0.83630933    -0.59070
Mn553      Mn  0.96869441  0.04644636  0.84814263     1.20190
Mn554      Mn  0.57388720  0.04717035  0.84975342     1.10090
Cl555      Cl  0.00056294  0.00789502  0.89134168    -0.87040
C556        C  0.58322433  0.16859202  0.82726409     0.95290
C557        C  0.00620632  0.51027062  0.73093755     0.95090
N558        N  0.93649216  0.05130857  0.37397495    -0.07200
N559        N  0.93299520  0.08493204  0.36055736    -0.59320
N560        N  0.88623895  0.44676384  0.41165468    -0.06880
N561        N  0.84774123  0.41284453  0.42351440    -0.61450
N562        N  0.90104637  0.47723198  0.44168059    -0.06480
N563        N  0.87337173  0.46451957  0.47477899    -0.59290
N564        N  0.92068763  0.02015546  0.34464184    -0.06150
N565        N  0.90650958  0.03175199  0.31090273    -0.61800
C566        C  0.91419768  0.07211099  0.32092429     0.94980
C567        C  0.84078718  0.42400792  0.46351470     0.94760
N568        N  0.96466240  0.40044701  0.34974355    -0.07380
N569        N  0.95875618  0.36257878  0.33510204    -0.59900
N570        N  0.96210516  0.47585298  0.29220124    -0.05500
N571        N  0.95262418  0.98705754  0.25554557    -0.61150
N572        N  0.50095162  0.47734148  0.29004864    -0.07410
N573        N  0.51877917  0.98925776  0.25155814    -0.60160
N574        N  0.92584493  0.39934358  0.35241049    -0.05150
N575        N  0.89309547  0.36077816  0.33977842    -0.61240
Mn576      Mn  0.92247512  0.45963647  0.35040659     1.18440
C577        C  0.91401097  0.33811210  0.32968531     0.97060
C578        C  0.48796333  0.99494516  0.23059260     0.97720
N579        N  0.98961002  0.02590978  0.49086695    -0.07430
N580        N  0.97014306  0.01232113  0.52850681    -0.63740
N581        N  0.56536285  0.10402192  0.43004697    -0.06240
N582        N  0.59762926  0.14266269  0.44329935    -0.64420
N583        N  0.52660915  0.10322994  0.43100009    -0.06940
N584        N  0.53230235  0.14128761  0.44501914    -0.64010
N585        N  0.52789653  0.02614103  0.48935316    -0.05840
N586        N  0.53522509  0.01256172  0.52577222    -0.64700
Mn587      Mn  0.96288021  0.04052014  0.43450557     1.10660
C588        C  0.99878121  0.50376728  0.54978791     0.98140
C589        C  0.57688545  0.16597756  0.45202939     0.98360
N590        N  0.59020501  0.02606647  0.33921970    -0.06950
N591        N  0.61798924  0.03838462  0.30621595    -0.62320
N592        N  0.56945929  0.48051701  0.43608827    -0.06270
N593        N  0.58320915  0.46636031  0.46845891    -0.59050
N594        N  0.55386167  0.45107856  0.40508982    -0.07580
N595        N  0.55689993  0.41655438  0.41559935    -0.61890
N596        N  0.60549253  0.05625979  0.36958841    -0.06560
N597        N  0.64435358  0.08985949  0.35766363    -0.59070
Mn598      Mn  0.52810922  0.46309673  0.34584691     1.20190
Mn599      Mn  0.56868159  0.04277812  0.43147182     1.10090
Cl600      Cl  0.99573108  0.00175277  0.39058385    -0.87040
C601        C  0.65118774  0.07852067  0.31756245     0.95290
C602        C  0.57524922  0.42633042  0.45526737     0.95090
C603        C  0.96096993  0.98617344  0.66514448    -0.10240
C604        C  0.00215776  0.49937816  0.68511156     0.05960
C605        C  0.53929420  0.50562966  0.66001241    -0.04000
C606        C  0.53526546  0.50192546  0.61577570    -0.08450
C607        C  0.99577219  0.49418680  0.59561145     0.05080
C608        C  0.95743511  0.98370645  0.62058258    -0.03480
Br609      Br  0.89977634  0.96708953  0.59664282    -0.03170
H610        H  0.93178134  0.97977201  0.68412575     0.08990
H611        H  0.56479675  0.50903603  0.59703979     0.07010
Br612      Br  0.59857290  0.52523202  0.68163381    -0.03600
C613        C  0.95428412  0.49065790  0.11653254    -0.10240
C614        C  0.49616053  0.01334005  0.09653388     0.05960
C615        C  0.53546048  0.03380637  0.12113407    -0.04000
C616        C  0.53213401  0.02898236  0.16555314    -0.08450
C617        C  0.49012390  0.00377116  0.18512504     0.05080
C618        C  0.95085953  0.48485104  0.16034379    -0.03480
Br619      Br  0.89186684  0.44523300  0.18214566    -0.03170
H620        H  0.92386760  0.47415674  0.09773272     0.08990
H621        H  0.56236586  0.04398389  0.18469785     0.07010
Br622      Br  0.59376127  0.06839022  0.09586593    -0.03600
C623        C  0.57206437  0.22148236  0.49989009    -0.10240
C624        C  0.59834045  0.20899611  0.47537515     0.05960
C625        C  0.64452349  0.23810637  0.47351638    -0.04000
C626        C  0.66335350  0.27787050  0.49600633    -0.08450
C627        C  0.63848810  0.29147532  0.52300577     0.05080
C628        C  0.59057486  0.26182809  0.52218943    -0.03480
Br629      Br  0.54483652  0.27486430  0.54206298    -0.03170
H630        H  0.53606784  0.20014828  0.50047811     0.08990
H631        H  0.69769280  0.29869318  0.48773548     0.07010
Br632      Br  0.68423899  0.22837584  0.43684881    -0.03600
C633        C  0.62233842  0.35229509  0.48001233    -0.10240
C634        C  0.63341056  0.36046909  0.52436761     0.05960
C635        C  0.61968768  0.38789643  0.54639391    -0.04000
C636        C  0.59890627  0.40711642  0.52344397    -0.08450
C637        C  0.58977874  0.39934318  0.47929808     0.05080
C638        C  0.59935126  0.36930239  0.45835293    -0.03480
Br639      Br  0.58504285  0.35112628  0.39936017    -0.03170
H640        H  0.63273893  0.33294131  0.46102557     0.08990
H641        H  0.59130192  0.42987450  0.54007165     0.07010
Br642      Br  0.63273494  0.40778740  0.60495730    -0.03600
C643        C  0.76907872  0.42013911  0.47612654    -0.10240
C644        C  0.79687746  0.40319015  0.48476756     0.05960
C645        C  0.78445636  0.37152973  0.51656022    -0.04000
C646        C  0.74236726  0.35451141  0.53650990    -0.08450
C647        C  0.71099148  0.36777749  0.52476800     0.05080
C648        C  0.72813018  0.40519476  0.49708244    -0.03480
Br649      Br  0.70768978  0.44680106  0.49152474    -0.03170
H650        H  0.78087149  0.44748334  0.45435491     0.08990
H651        H  0.73272084  0.32857257  0.55954432     0.07010
Br652      Br  0.82363234  0.35037398  0.53312344    -0.03600
C653        C  0.64896372  0.25936745  0.74595321    -0.10240
C654        C  0.63561663  0.29010033  0.75778619     0.05960
C655        C  0.59695413  0.27380273  0.78575811    -0.04000
C656        C  0.58332052  0.23581815  0.80896576    -0.08450
C657        C  0.60256409  0.20964242  0.80249495     0.05080
C658        C  0.63417974  0.22041619  0.76891613    -0.03480
Br659      Br  0.65781777  0.18331860  0.75212203    -0.03170
H660        H  0.67447961  0.26775609  0.72145048     0.08990
H661        H  0.55572499  0.22558056  0.83150514     0.07010
Br662      Br  0.55291826  0.29266562  0.79032399    -0.03600
C663        C  0.62692169  0.39664197  0.82517900    -0.10240
C664        C  0.60266614  0.41019343  0.80069372     0.05960
C665        C  0.59949221  0.40258051  0.75601978    -0.04000
C666        C  0.62017506  0.38092051  0.73662262    -0.08450
C667        C  0.64345319  0.36522923  0.76130734     0.05080
C668        C  0.64672552  0.37423582  0.80678022    -0.03480
Br669      Br  0.67173965  0.35293765  0.84882990    -0.03170
H670        H  0.62965481  0.40269817  0.85955818     0.08990
H671        H  0.61644479  0.37526564  0.70238118     0.07010
Br672      Br  0.56345428  0.41690454  0.72077916    -0.03600
C673        C  0.78414358  0.43036742  0.77549011    -0.10240
C674        C  0.79964632  0.40738611  0.79938446     0.05960
C675        C  0.77342005  0.36178229  0.80108391    -0.04000
C676        C  0.73206112  0.34018690  0.78020427    -0.08450
C677        C  0.71394605  0.36255073  0.75733235     0.05080
C678        C  0.74222977  0.40932520  0.75545911    -0.03480
Br679      Br  0.72730109  0.44896015  0.72753751    -0.03170
H680        H  0.80413501  0.46566290  0.77384343     0.08990
H681        H  0.71375234  0.30588766  0.78603779     0.07010
Br682      Br  0.79163650  0.32646866  0.83201337    -0.03600
C683        C  0.62689052  0.30894109  0.61822627    -0.10240
C684        C  0.66355520  0.34035494  0.59410551     0.05960
C685        C  0.70088709  0.37042515  0.62001846    -0.04000
C686        C  0.70151332  0.36453056  0.66461840    -0.08450
C687        C  0.66274364  0.33713572  0.68905058     0.05080
C688        C  0.62444685  0.30936102  0.66356248    -0.03480
Br689      Br  0.56585375  0.27025947  0.68560599    -0.03170
H690        H  0.59866471  0.28339716  0.60250643     0.08990
H691        H  0.73320720  0.38468209  0.67974392     0.07010
Br692      Br  0.74965180  0.42645693  0.60219790    -0.03600
C693        C  0.75840267  0.16006837  0.26101109    -0.10240
C694        C  0.78468048  0.13881808  0.26024478     0.05960
C695        C  0.76345435  0.09684667  0.28175092    -0.04000
C696        C  0.71850418  0.07696126  0.29459730    -0.08450
C697        C  0.69495730  0.09939115  0.29536762     0.05080
C698        C  0.71516185  0.14143054  0.27869092    -0.03480
Br699      Br  0.68501928  0.17479388  0.27976346    -0.03170
H700        H  0.77287219  0.19376837  0.25157332     0.08990
H701        H  0.70298518  0.04506467  0.30954691     0.07010
Br702      Br  0.78926882  0.06742275  0.31211447    -0.03600
C703        C  0.87074061  0.25807015  0.33081664    -0.10240
C704        C  0.89212302  0.29588537  0.30681884     0.05960
C705        C  0.89305923  0.29278035  0.26180149    -0.04000
C706        C  0.87393056  0.25165139  0.24145120    -0.08450
C707        C  0.85395747  0.21245497  0.26535851     0.05080
C708        C  0.85216651  0.21693746  0.31125257    -0.03480
Br709      Br  0.82953587  0.17032328  0.35191209    -0.03170
H710        H  0.86992082  0.26063974  0.36552412     0.08990
H711        H  0.87675649  0.25113809  0.20692954     0.07010
Br712      Br  0.92081111  0.34405974  0.22687947    -0.03600
C713        C  0.85285765  0.10414239  0.24060535    -0.10240
C714        C  0.86450328  0.14629355  0.25630829     0.05960
C715        C  0.90419419  0.16737099  0.28217193    -0.04000
C716        C  0.91947259  0.14237687  0.30260466    -0.08450
C717        C  0.90150288  0.09805644  0.29315278     0.05080
C718        C  0.87139197  0.08016265  0.25816212    -0.03480
Br719      Br  0.84799746  0.02140807  0.23690222    -0.03170
H720        H  0.82629626  0.08830509  0.21718700     0.08990
H721        H  0.94698454  0.15822808  0.32506302     0.07010
Br722      Br  0.94728261  0.22905365  0.28385571    -0.03600
C723        C  0.75383873  0.11254361  0.04155547    -0.10240
C724        C  0.78320129  0.15652088  0.03012714     0.05960
C725        C  0.76398142  0.17649671  0.00417855    -0.04000
C726        C  0.72390441  0.15053967  0.98235141    -0.08450
C727        C  0.69895321  0.10557677  0.98831931     0.05080
C728        C  0.71306438  0.08679364  0.02012617    -0.03480
Br729      Br  0.68176418  0.02547190  0.03271253    -0.03170
H730        H  0.76525693  0.09665294  0.06354316     0.08990
H731        H  0.71121897  0.16605532  0.96128191     0.07010
Br732      Br  0.78228795  0.23787983  0.00115076    -0.03600
C733        C  0.90075528  0.30479745  0.02042273    -0.10240
C734        C  0.89961571  0.30376806  0.97537613     0.05960
C735        C  0.88210702  0.26354763  0.95409329    -0.04000
C736        C  0.86315805  0.22499601  0.97767740    -0.08450
C737        C  0.86062410  0.22446320  0.02352716     0.05080
C738        C  0.88251673  0.26621069  0.04476221    -0.03480
Br739      Br  0.89260041  0.27627910  0.10541573    -0.03170
H740        H  0.91639915  0.33618831  0.03688007     0.08990
H741        H  0.84787699  0.19465877  0.95949625     0.07010
Br742      Br  0.88134887  0.25954535  0.89257074    -0.03600
C743        C  0.83184441  0.11587886  0.99409889    -0.10240
C744        C  0.85635200  0.15205028  0.02259477     0.05960
C745        C  0.90370109  0.16735945  0.02437591    -0.04000
C746        C  0.92245484  0.14456736  0.00322627    -0.08450
C747        C  0.89624167  0.10729684  0.97828215     0.05080
C748        C  0.85079323  0.09343941  0.97340807    -0.03480
Br749      Br  0.81338602  0.04504112  0.93629618    -0.03170
H750        H  0.79807508  0.10532881  0.98466118     0.08990
H751        H  0.95803489  0.15636403  0.00596438     0.07010
Br752      Br  0.94668470  0.22003727  0.05350930    -0.03600
C753        C  0.86069042  0.16205876  0.11750716    -0.10240
C754        C  0.83393479  0.17576940  0.09585454     0.05960
C755        C  0.80640800  0.18502142  0.12402671    -0.04000
C756        C  0.80678620  0.18052160  0.16916337    -0.08450
C757        C  0.83621486  0.17005763  0.19093336     0.05080
C758        C  0.86645544  0.16480652  0.16246565    -0.03480
Br759      Br  0.92380945  0.17146546  0.17752143    -0.03170
H760        H  0.88052995  0.15140062  0.10000020     0.08990
H761        H  0.78463090  0.18799083  0.18674679     0.07010
Br762      Br  0.76770793  0.20627290  0.10588444    -0.03600
C763        C  0.83384354  0.67800942  0.04434581    -0.03570
C764        C  0.83523647  0.66669477  0.24279055    -0.03570
C765        C  0.66357908  0.83837965  0.74057826    -0.03570
C766        C  0.66150950  0.84052443  0.54270099    -0.03570
N767        N  0.50664913  0.98635618  0.99097702    -0.07200
N768        N  0.52555438  0.49970966  0.02887548    -0.59320
N769        N  0.92978571  0.90677834  0.93144921    -0.06880
N770        N  0.89776609  0.86818101  0.94489583    -0.61450
N771        N  0.96849104  0.90748801  0.93077434    -0.06480
N772        N  0.96324455  0.86960623  0.94334138    -0.59290
N773        N  0.96869061  0.98671332  0.98970689    -0.06150
N774        N  0.96097270  0.50051676  0.02630544    -0.61800
C775        C  0.49671335  0.50878256  0.05027113     0.94980
C776        C  0.91900430  0.84509938  0.95129131     0.94760
N777        N  0.90503679  0.98410531  0.84234137    -0.07380
N778        N  0.87603949  0.97149033  0.81055333    -0.59900
N779        N  0.92665063  0.53127246  0.93835500    -0.05500
N780        N  0.90931006  0.54405879  0.96960489    -0.61150
N781        N  0.94286541  0.56063176  0.90783579    -0.07410
N782        N  0.93669048  0.59393612  0.91762855    -0.60160
N783        N  0.89000219  0.95474743  0.87286744    -0.05150
N784        N  0.85029601  0.92161209  0.86251637    -0.61240
Mn785      Mn  0.92745388  0.96883956  0.93325320     1.18440
C786        C  0.84224108  0.93226316  0.82323872     0.97060
C787        C  0.91631410  0.58341142  0.95661121     0.97720
N788        N  0.55800958  0.95573572  0.87403599    -0.07430
N789        N  0.56376773  0.92255094  0.86300273    -0.63740
N790        N  0.61146159  0.56019399  0.91088070    -0.06240
N791        N  0.65124272  0.59255048  0.92262196    -0.64420
N792        N  0.59542726  0.53020113  0.94074253    -0.06940
N793        N  0.62334061  0.54136306  0.97322161    -0.64010
N794        N  0.57341639  0.98518483  0.84364376    -0.05840
N795        N  0.58916879  0.97251460  0.81105178    -0.64700
Mn796      Mn  0.53239736  0.96904204  0.93429730     1.10660
C797        C  0.58256039  0.93324773  0.82327307     0.98280
C798        C  0.65815290  0.58018088  0.96174282     0.98360
N799        N  0.53340722  0.60802915  0.85172433    -0.06950
N800        N  0.53912180  0.64523705  0.83676221    -0.62320
N801        N  0.53339793  0.53060459  0.79225057    -0.06270
N802        N  0.54179744  0.51826864  0.75499981    -0.59050
N803        N  0.99493166  0.52997556  0.79133662    -0.07580
N804        N  0.97644572  0.51742954  0.75319206    -0.61890
N805        N  0.57203871  0.60852889  0.85183467    -0.06560
N806        N  0.60417791  0.64591881  0.83628648    -0.59070
Mn807      Mn  0.96870068  0.54645692  0.84815338     1.20190
Mn808      Mn  0.57388650  0.54716498  0.84972624     1.10090
Cl809      Cl  0.00057229  0.50789605  0.89133177    -0.87040
C810        C  0.58322942  0.66859371  0.82725433     0.95290
C811        C  0.00624757  0.01027382  0.73094320     0.95090
N812        N  0.93650418  0.55132062  0.37395141    -0.07200
N813        N  0.93300494  0.58494249  0.36053393    -0.59320
N814        N  0.88624806  0.94675164  0.41168024    -0.06880
N815        N  0.84775140  0.91283317  0.42354316    -0.61450
N816        N  0.90106036  0.97721959  0.44170634    -0.06480
N817        N  0.87338974  0.96450732  0.47480807    -0.59290
N818        N  0.92070628  0.52016927  0.34461640    -0.06150
N819        N  0.90653082  0.53176593  0.31087536    -0.61800
C820        C  0.91421390  0.57212309  0.32089852     0.94980
C821        C  0.84080267  0.92399576  0.46354573     0.94760
N822        N  0.96466522  0.90044830  0.34972996    -0.07380
N823        N  0.95875835  0.86258205  0.33508126    -0.59900
N824        N  0.96207749  0.97584707  0.29220410    -0.05500
N825        N  0.95266371  0.48705832  0.25553402    -0.61150
N826        N  0.50092758  0.97734405  0.29003669    -0.07410
N827        N  0.51881261  0.48924321  0.25157217    -0.60160
N828        N  0.92584614  0.89933990  0.35241430    -0.05150
N829        N  0.89309507  0.86077315  0.33978782    -0.61240
Mn830      Mn  0.92246650  0.95962728  0.35042207     1.18440
C831        C  0.91401137  0.83811161  0.32967885     0.97060
C832        C  0.48800625  0.49493289  0.23059212     0.97720
N833        N  0.98957949  0.52591139  0.49086308    -0.07430
N834        N  0.97009749  0.51231764  0.52849624    -0.63740
N835        N  0.56535782  0.60402049  0.43005918    -0.06240
N836        N  0.59762401  0.64265902  0.44331682    -0.64420
N837        N  0.52660679  0.60323427  0.43099914    -0.06940
N838        N  0.53230166  0.64129369  0.44501486    -0.64010
N839        N  0.52786286  0.52613601  0.48936171    -0.05840
N840        N  0.53517370  0.51254630  0.52578233    -0.64700
Mn841      Mn  0.96287190  0.54052833  0.43449142     1.10660
C842        C  0.99883917  0.00378094  0.54978939     0.98140
C843        C  0.57688326  0.66597865  0.45203654     0.98360
N844        N  0.59021093  0.52605708  0.33925219    -0.06950
N845        N  0.61799642  0.53837590  0.30624971    -0.62320
N846        N  0.56948146  0.98052759  0.43605480    -0.06270
N847        N  0.58323519  0.96637279  0.46842342    -0.59050
N848        N  0.55388012  0.95108793  0.40505727    -0.07580
N849        N  0.55692030  0.91656419  0.41556610    -0.61890
N850        N  0.60549441  0.55625141  0.36961988    -0.06560
N851        N  0.64435472  0.58985294  0.35769569    -0.59070
Mn852      Mn  0.52810743  0.96310232  0.34582298     1.20190
Mn853      Mn  0.56866739  0.54277198  0.43149429     1.10090
Cl854      Cl  0.99572787  0.50175439  0.39058809    -0.87040
C855        C  0.65119196  0.57851325  0.31759581     0.95290
C856        C  0.57527472  0.92634303  0.45523246     0.95090
C857        C  0.96091659  0.48620153  0.66514463    -0.10240
C858        C  0.00221719  0.99938946  0.68511555     0.05960
C859        C  0.53937220  0.00568757  0.66001946    -0.04000
C860        C  0.53535263  0.00199275  0.61578077    -0.08450
C861        C  0.99584445  0.99420752  0.59561391     0.05080
C862        C  0.95737610  0.48373256  0.62058299    -0.03480
Br863      Br  0.89973159  0.46718388  0.59664923    -0.03170
H864        H  0.93174050  0.47983637  0.68412813     0.08990
H865        H  0.56489583  0.00914213  0.59704628     0.07010
Br866      Br  0.59865575  0.02533624  0.68165278    -0.03600
C867        C  0.95423347  0.99071492  0.11653932    -0.10240
C868        C  0.49621071  0.51329849  0.09652925     0.05960
C869        C  0.53551031  0.53376889  0.12112976    -0.04000
C870        C  0.53218270  0.52894910  0.16554950    -0.08450
C871        C  0.49017206  0.50373682  0.18512027     0.05080
C872        C  0.95080939  0.98490380  0.16035098    -0.03480
Br873      Br  0.89181325  0.94529841  0.18215325    -0.03170
H874        H  0.92381572  0.97422249  0.09774043     0.08990
H875        H  0.56241310  0.54395935  0.18469630     0.07010
Br876      Br  0.59381046  0.56835704  0.09586168    -0.03600
C877        C  0.57206128  0.72148917  0.49988859    -0.10240
C878        C  0.59833808  0.70899787  0.47538148     0.05960
C879        C  0.64452223  0.73810441  0.47352860    -0.04000
C880        C  0.66335240  0.77786993  0.49601606    -0.08450
C881        C  0.63848620  0.79147988  0.52300803     0.05080
C882        C  0.59057225  0.76183639  0.52218566    -0.03480
Br883      Br  0.54483517  0.77488070  0.54204413    -0.03170
H884        H  0.53606415  0.70015813  0.50047149     0.08990
H885        H  0.69769329  0.79868989  0.48774848     0.07010
Br886      Br  0.68423997  0.72836700  0.43687142    -0.03600
C887        C  0.62235664  0.85230509  0.47999748    -0.10240
C888        C  0.63341859  0.86047842  0.52435515     0.05960
C889        C  0.61969342  0.88790753  0.54637388    -0.04000
C890        C  0.59891782  0.90712798  0.52341583    -0.08450
C891        C  0.58980003  0.89935543  0.47926828     0.05080
C892        C  0.59937745  0.86931568  0.45832882    -0.03480
Br893      Br  0.58508801  0.85114840  0.39933208    -0.03170
H894        H  0.63275995  0.83295003  0.46101653     0.08990
H895        H  0.59131035  0.92988613  0.54003886     0.07010
Br896      Br  0.63273111  0.90780080  0.60493759    -0.03600
C897        C  0.76909897  0.92014022  0.47614640    -0.10240
C898        C  0.79689095  0.90318533  0.48479500     0.05960
C899        C  0.78445734  0.87152027  0.51658471    -0.04000
C900        C  0.74236439  0.85450616  0.53652570    -0.08450
C901        C  0.71099549  0.86777812  0.52477494     0.05080
C902        C  0.72814502  0.90519753  0.49709116    -0.03480
Br903      Br  0.70771050  0.94680723  0.49152153    -0.03170
H904        H  0.78089998  0.94748608  0.45437575     0.08990
H905        H  0.73270916  0.82856517  0.55955935     0.07010
Br906      Br  0.82361926  0.85034973  0.53315323    -0.03600
C907        C  0.64895088  0.75937102  0.74593864    -0.10240
C908        C  0.63560195  0.79010098  0.75777815     0.05960
C909        C  0.59694014  0.77379850  0.78575101    -0.04000
C910        C  0.58331218  0.73581384  0.80895669    -0.08450
C911        C  0.60256112  0.70964279  0.80248297     0.05080
C912        C  0.63417338  0.72041987  0.76890025    -0.03480
Br913      Br  0.65781771  0.68332898  0.75210073    -0.03170
H914        H  0.67446599  0.76776351  0.72143436     0.08990
H915        H  0.55571837  0.72557385  0.83149847     0.07010
Br916      Br  0.55290385  0.79266054  0.79032644    -0.03600
C917        C  0.62690899  0.89662681  0.82520597    -0.10240
C918        C  0.60266540  0.91019723  0.80072749     0.05960
C919        C  0.59949821  0.90260240  0.75605015    -0.04000
C920        C  0.62017137  0.88093709  0.73664386    -0.08450
C921        C  0.64344077  0.86523067  0.76132054     0.05080
C922        C  0.64671052  0.87422292  0.80679638    -0.03480
Br923      Br  0.67172089  0.85290979  0.84883475    -0.03170
H924        H  0.62963878  0.90267064  0.85958712     0.08990
H925        H  0.61644674  0.87529623  0.70240016     0.07010
Br926      Br  0.56349217  0.91697094  0.72081240    -0.03600
C927        C  0.78413596  0.93036337  0.77548467    -0.10240
C928        C  0.79964027  0.90737775  0.79936977     0.05960
C929        C  0.77341030  0.86177435  0.80106884    -0.04000
C930        C  0.73204689  0.84018326  0.78019716    -0.08450
C931        C  0.71393185  0.86255109  0.75733219     0.05080
C932        C  0.74221814  0.90932530  0.75546109    -0.03480
Br933      Br  0.72728990  0.94896444  0.72754816    -0.03170
H934        H  0.80412981  0.96565878  0.77383949     0.08990
H935        H  0.71373534  0.80588415  0.78603143     0.07010
Br936      Br  0.79162873  0.82645584  0.83198662    -0.03600
C937        C  0.62687552  0.80895682  0.61822453    -0.10240
C938        C  0.66354763  0.84036488  0.59410552     0.05960
C939        C  0.70087864  0.87043272  0.62002031    -0.04000
C940        C  0.70150122  0.86453849  0.66462069    -0.08450
C941        C  0.66272838  0.83714817  0.68905147     0.05080
C942        C  0.62443065  0.80938039  0.66356171    -0.03480
Br943      Br  0.56583381  0.77029088  0.68560369    -0.03170
H944        H  0.59865561  0.78342434  0.60250937     0.08990
H945        H  0.73319420  0.88468548  0.67974608     0.07010
Br946      Br  0.74964873  0.92646248  0.60220185    -0.03600
C947        C  0.75839043  0.66005816  0.26101747    -0.10240
C948        C  0.78467271  0.63881247  0.26025015     0.05960
C949        C  0.76345600  0.59684542  0.28176463    -0.04000
C950        C  0.71851051  0.57696101  0.29462600    -0.08450
C951        C  0.69495992  0.59938703  0.29539814     0.05080
C952        C  0.71515445  0.64142100  0.27870913    -0.03480
Br953      Br  0.68500409  0.67477703  0.27977957    -0.03170
H954        H  0.77285385  0.69375495  0.25157026     0.08990
H955        H  0.70299815  0.54506766  0.30958188     0.07010
Br956      Br  0.78928168  0.56742405  0.31211461    -0.03600
C957        C  0.87073608  0.75807045  0.33081312    -0.10240
C958        C  0.89211803  0.79588446  0.30681363     0.05960
C959        C  0.89304621  0.79277765  0.26179598    -0.04000
C960        C  0.87391313  0.75164778  0.24144702    -0.08450
C961        C  0.85394491  0.71245263  0.26535615     0.05080
C962        C  0.85215867  0.71693696  0.31125054    -0.03480
Br963      Br  0.82953436  0.67032529  0.35191274    -0.03170
H964        H  0.86992094  0.76064162  0.36552076     0.08990
H965        H  0.87673217  0.75113268  0.20692481     0.07010
Br966      Br  0.92079142  0.84405565  0.22687175    -0.03600
C967        C  0.85285613  0.60414668  0.24059505    -0.10240
C968        C  0.86449736  0.64629534  0.25630325     0.05960
C969        C  0.90419028  0.66737548  0.28216403    -0.04000
C970        C  0.91947696  0.64238434  0.30258819    -0.08450
C971        C  0.90151291  0.59806574  0.29313116     0.05080
C972        C  0.87139831  0.58017063  0.25814376    -0.03480
Br973      Br  0.84801058  0.52141840  0.23687884    -0.03170
H974        H  0.82629262  0.58830807  0.21717895     0.08990
H975        H  0.94699063  0.65823668  0.32504460     0.07010
Br976      Br  0.94727286  0.72905983  0.28385318    -0.03600
C977        C  0.75383995  0.61252961  0.04153649    -0.10240
C978        C  0.78319978  0.65650957  0.03011573     0.05960
C979        C  0.76398109  0.67648384  0.00416342    -0.04000
C980        C  0.72391178  0.65052515  0.98232519    -0.08450
C981        C  0.69896575  0.60556084  0.98828561     0.05080
C982        C  0.71307365  0.58677728  0.02009527    -0.03480
Br983      Br  0.68178184  0.52545281  0.03266975    -0.03170
H984        H  0.76525650  0.59663949  0.06352666     0.08990
H985        H  0.71122727  0.66604041  0.96125410     0.07010
Br986      Br  0.78227702  0.73786496  0.00114600    -0.03600
C987        C  0.90073972  0.80479322  0.02043085    -0.10240
C988        C  0.89960908  0.80376695  0.97538405     0.05960
C989        C  0.88210852  0.76354849  0.95409879    -0.04000
C990        C  0.86316002  0.72499532  0.97768025    -0.08450
C991        C  0.86061782  0.72445891  0.02352958     0.05080
C992        C  0.88250039  0.76620491  0.04476786    -0.03480
Br993      Br  0.89256723  0.77626959  0.10542347    -0.03170
H994        H  0.91637670  0.83618286  0.03689039     0.08990
H995        H  0.84788630  0.69465932  0.95949703     0.07010
Br996      Br  0.88136268  0.75955091  0.89257613    -0.03600
C997        C  0.83186038  0.61587927  0.99410100    -0.10240
C998        C  0.85635881  0.65205166  0.02259814     0.05960
C999        C  0.90370909  0.66736753  0.02438703    -0.04000
C1000       C  0.92247090  0.64457785  0.00324707    -0.08450
C1001       C  0.89626512  0.60730401  0.97830446     0.05080
C1002       C  0.85081689  0.59344214  0.97342002    -0.03480
Br1003     Br  0.81342073  0.54504097  0.93630622    -0.03170
H1004       H  0.79809299  0.60532648  0.98465449     0.08990
H1005       H  0.95805146  0.65637949  0.00599082     0.07010
Br1006     Br  0.94668361  0.72005054  0.05351991    -0.03600
C1007       C  0.86068590  0.66206086  0.11750895    -0.10240
C1008       C  0.83392262  0.67575987  0.09585316     0.05960
C1009       C  0.80638430  0.68499928  0.12402261    -0.04000
C1010       C  0.80676124  0.68050032  0.16916004    -0.08450
C1011       C  0.83620087  0.67005249  0.19093252     0.05080
C1012       C  0.86645051  0.66481362  0.16246690    -0.03480
Br1013     Br  0.92381315  0.67149412  0.17752416    -0.03170
H1014       H  0.88053234  0.65140909  0.10000538     0.08990
H1015       H  0.78459409  0.68795502  0.18674145     0.07010
Br1016     Br  0.76766840  0.70623045  0.10587557    -0.03600
loop_ 
_geom_bond_atom_site_label_1 
_geom_bond_atom_site_label_2 
_geom_bond_distance 
_geom_bond_site_symmetry_2 
_ccdc_geom_bond_type 
C1          C216   1.581       .  S
C1          C229   1.571       .  S
C1          C236   1.604       .  S
C1          C246   1.607       .  S
C2          C186   1.607       .  S
C2          C199   1.567       .  S
C2          C206   1.564       .  S
C2          C249   1.620       .  S
C3          C146   1.580       .  S
C3          C159   1.555       .  S
C3          C169   1.593       .  S
C3          C179   1.605       .  S
C4          C119   1.616       .  S
C4          C126   1.567       .  S
C4          C139   1.582       .  S
C4          C176   1.603       .  S
N5          Mn34   2.178       .  S
N5          N260   1.317   1_556  A
N5          N519   1.313   1_455  A
N6          N259   1.317   1_554  A
N6           C13   1.351   1_465  A
N7          Mn23   2.230       .  S
N7            N9   1.319       .  A
N7            N8   1.325       .  A
N8           C14   1.355       .  A
N9         Mn542   2.193       .  S
N9           N10   1.321       .  A
N10          C14   1.347       .  A
N11         Mn23   2.153       .  S
N11         N513   1.313       .  A
N11         N266   1.309   1_556  A
N12         N265   1.309   1_544  A
N12         C521   1.346       .  A
C13         N520   1.346       .  A
C13         C106   1.448       .  S
C14         C226   1.479       .  S
N15        Mn299   2.207       .  S
N15          N21   1.315       .  A
N15          N16   1.319       .  A
N16          C24   1.352       .  A
N17        Mn277   2.219   1_545  S
N17          N18   1.322       .  A
N17          N19   1.315       .  A
N18          C25   1.353       .  A
N19         Mn45   2.207       .  S
N19          N20   1.324       .  A
N20          C25   1.356       .  A
N21         Mn23   2.198       .  S
N21          N22   1.322       .  A
N22          C24   1.356       .  A
Mn23        N271   2.219       .  S
Mn23       Cl301   2.542       .  S
C24         C166   1.482       .  S
C25         C239   1.481       .  S
N26         Mn34   2.206       .  S
N26          N27   1.321       .  A
N26          N32   1.314       .  A
N27          C35   1.358       .  A
N28         Mn46   2.224       .  S
N28          N30   1.313       .  A
N28          N29   1.325       .  A
N29          C36   1.362       .  A
N30        Mn288   2.177   1_545  S
N30          N31   1.317       .  A
N31          C36   1.346       .  A
N32        Mn300   2.184       .  S
N32          N33   1.319       .  A
N33          C35   1.347       .  A
Mn34        N517   2.193   1_455  S
Mn34        N284   2.177       .  S
Mn34       Cl809   2.539       .  S
C35         C156   1.471       .  S
C36         C219   1.487       .  S
N37        Mn553   2.208   1_455  S
N37          N38   1.318       .  A
N37          N43   1.321       .  A
N38          C48   1.350       .  A
N39         Mn46   2.168       .  S
N39          N40   1.312       .  A
N39         N549   1.313   1_455  A
N40         C811   1.346       .  A
N41         Mn45   2.177       .  S
N41          N42   1.316       .  A
N41         N547   1.313       .  A
N42         C303   1.352       .  A
N43         Mn46   2.196       .  S
N43          N44   1.324       .  A
N44          C48   1.350       .  A
Mn45        N269   2.207   1_545  S
Mn45        N545   2.208       .  S
Mn45        Cl47   2.536       .  S
Mn46        N286   2.184   1_545  S
Mn46       Cl555   2.543       .  S
Cl47       Mn277   2.542   1_545  S
Cl47       Mn796   2.539   1_545  S
Cl47       Mn554   2.543       .  S
C48         C149   1.482       .  S
C49         N802   1.346       .  A
C49         N296   1.352       .  A
C49          C96   1.462       .  S
N50         Mn79   2.219       .  S
N50          N51   1.324       .  A
N50          N56   1.313       .  A
N51          C58   1.362       .  A
N52         Mn68   2.193       .  S
N52          N54   1.313       .  A
N52          N53   1.322       .  A
N53          C59   1.355       .  A
N54        Mn333   2.200       .  S
N54          N55   1.318       .  A
N55          C59   1.350       .  A
N56        Mn322   2.176   1_545  S
N56          N57   1.316       .  A
N57          C58   1.344       .  A
C58         C209   1.485       .  S
C59         C136   1.466       .  S
N60        Mn598   2.206       .  S
N60          N66   1.318       .  A
N60          N61   1.322       .  A
N61          C69   1.350       .  A
N62         Mn68   2.161       .  S
N62         N317   1.310       .  A
N62         N572   1.312       .  A
N63         N316   1.310       .  A
N63         C578   1.345       .  A
N64         Mn90   2.162       .  S
N64         N570   1.312   1_455  A
N64         N319   1.316       .  A
N65         N318   1.316       .  A
N65          C70   1.350   1_455  A
N66         Mn68   2.188       .  S
N66          N67   1.321       .  A
N67          C69   1.347       .  A
Mn68        N310   2.176       .  S
Mn68       Cl346   2.533       .  S
C69         C196   1.469       .  S
C70         N571   1.345       .  A
C70         C109   1.447   1_565  S
N71         Mn79   2.174       .  S
N71          N72   1.316       .  A
N71         N585   1.314       .  A
N72         C334   1.350       .  A
N73         Mn91   2.220       .  S
N73          N75   1.320       .  A
N73          N74   1.322       .  A
N74          C81   1.354       .  A
N75        Mn587   2.211   1_455  S
N75          N76   1.324       .  A
N76          C81   1.354       .  A
N77         Mn91   2.172       .  S
N77          N78   1.312       .  A
N77         N579   1.314   1_455  A
N78         C842   1.350   1_455  A
Mn79        N308   2.200   1_545  S
Mn79        N583   2.211       .  S
Mn79        Cl92   2.543       .  S
C80         N326   1.350       .  A
C80         N840   1.350       .  A
C80          C99   1.462       .  S
C81         C116   1.497       .  S
N82        Mn344   2.196   1_545  S
N82          N83   1.318       .  A
N82          N88   1.315       .  A
N83          C93   1.349       .  A
N84        Mn345   2.216       .  S
N84          N85   1.323       .  A
N84          N86   1.314       .  A
N85          C94   1.356       .  A
N86         Mn90   2.191       .  S
N86          N87   1.319       .  A
N87          C94   1.353       .  A
N88         Mn91   2.217       .  S
N88          N89   1.325       .  A
N89          C93   1.359       .  A
Mn90        N568   2.206   1_455  S
Mn90        N336   2.196       .  S
Mn90       Cl854   2.542   1_455  S
Mn91        N338   2.216   1_545  S
Mn91       Cl600   2.534   1_455  S
Cl92       Mn322   2.533   1_545  S
Cl92       Mn852   2.542   1_545  S
Cl92       Mn599   2.534       .  S
C93         C189   1.475       .  S
C94         C129   1.490       .  S
C95         C100   1.392       .  A
C95         C350   1.404       .  A
C95         H102   1.084       .  S
C96         C349   1.404       .  A
C96         C605   1.412       .  A
C97          C98   1.384       .  A
C97         C604   1.412       .  A
C97        Br104   1.925       .  S
C98         C607   1.400   1_455  A
C98         H103   1.083       .  S
C99         C606   1.400       .  A
C99         C354   1.410       .  A
C100        C353   1.410       .  A
C100       Br101   1.923       .  S
C105        C110   1.378       .  A
C105        C868   1.398       .  A
C105        H112   1.084       .  S
C106        C107   1.404   1_655  A
C106        C867   1.398   1_545  A
C107        C108   1.393       .  A
C107       Br114   1.921       .  S
C108        C109   1.403   1_455  A
C108        H113   1.084       .  S
C109        C872   1.407   1_545  A
C110        C871   1.407       .  A
C110       Br111   1.926       .  S
C115        C116   1.402       .  A
C115        C120   1.411       .  A
C115        H122   1.083       .  S
C116        C117   1.400       .  A
C117        C118   1.398       .  A
C117       Br124   1.926       .  S
C118        C119   1.431       .  A
C118        H123   1.066       .  S
C119        C120   1.448       .  A
C120       Br121   1.939       .  S
C125        C126   1.424       .  A
C125        C130   1.391       .  A
C125        H132   1.082       .  S
C126        C127   1.434       .  A
C127        C128   1.410       .  A
C127       Br134   1.920       .  S
C128        C129   1.406       .  A
C128        H133   1.084       .  S
C129        C130   1.406       .  A
C130       Br131   1.923       .  S
C135        C136   1.387       .  A
C135        C140   1.393       .  A
C135        H142   1.086       .  S
C136        C137   1.399       .  A
C137        C138   1.403       .  A
C137       Br144   1.915       .  S
C138        C139   1.426       .  A
C138        H143   1.083       .  S
C139        C140   1.442       .  A
C140       Br141   1.927       .  S
C145        C146   1.415       .  A
C145        C150   1.408       .  A
C145        H152   1.083       .  S
C146        C147   1.445       .  A
C147        C148   1.390       .  A
C147       Br154   1.937       .  S
C148        C149   1.390       .  A
C148        H153   1.084       .  S
C149        C150   1.413       .  A
C150       Br151   1.917       .  S
C155        C156   1.389       .  A
C155        C160   1.389       .  A
C155        H162   1.084       .  S
C156        C157   1.408       .  A
C157        C158   1.404       .  A
C157       Br164   1.915       .  S
C158        C159   1.416       .  A
C158        H163   1.079       .  S
C159        C160   1.440       .  A
C160       Br161   1.928       .  S
C165        C166   1.397       .  A
C165        C170   1.401       .  A
C165        H172   1.084       .  S
C166        C167   1.401       .  A
C167        C168   1.399       .  A
C167       Br174   1.923       .  S
C168        C169   1.426       .  A
C168        H173   1.067       .  S
C169        C170   1.441       .  A
C170       Br171   1.932       .  S
C175        C176   1.413       .  A
C175        C180   1.414       .  A
C175        H182   1.059       .  S
C176        C177   1.438       .  A
C177        C178   1.409       .  A
C177       Br184   1.934       .  S
C178        C179   1.417       .  A
C178        H183   1.071       .  S
C179        C180   1.429       .  A
C180       Br181   1.915       .  S
C185        C186   1.433       .  A
C185        C190   1.403       .  A
C185        H192   1.080       .  S
C186        C187   1.455       .  A
C187        C188   1.400       .  A
C187       Br194   1.930       .  S
C188        C189   1.385       .  A
C188        H193   1.086       .  S
C189        C190   1.393       .  A
C190       Br191   1.917       .  S
C195        C196   1.386       .  A
C195        C200   1.394       .  A
C195        H202   1.084       .  S
C196        C197   1.406       .  A
C197        C198   1.404       .  A
C197       Br204   1.919       .  S
C198        C199   1.418       .  A
C198        H203   1.079       .  S
C199        C200   1.439       .  A
C200       Br201   1.918       .  S
C205        C206   1.414       .  A
C205        C210   1.407       .  A
C205        H212   1.084       .  S
C206        C207   1.436       .  A
C207        C208   1.394       .  A
C207       Br214   1.930       .  S
C208        C209   1.393       .  A
C208        H213   1.084       .  S
C209        C210   1.419       .  A
C210       Br211   1.922       .  S
C215        C216   1.415       .  A
C215        C220   1.405       .  A
C215        H222   1.083       .  S
C216        C217   1.442       .  A
C217        C218   1.396   1_554  A
C217       Br224   1.934       .  S
C218        C219   1.392       .  A
C218        H223   1.084       .  S
C219        C220   1.416   1_556  A
C220       Br221   1.921       .  S
C225        C226   1.403   1_554  A
C225        C230   1.411       .  A
C225        H232   1.084       .  S
C226        C227   1.395       .  A
C227        C228   1.397       .  A
C227       Br234   1.918       .  S
C228        C229   1.429   1_556  A
C228        H233   1.082       .  S
C229        C230   1.432       .  A
C230       Br231   1.920       .  S
C235        C236   1.428   1_556  A
C235        C240   1.398       .  A
C235        H242   1.072       .  S
C236        C237   1.440       .  A
C237        C238   1.410       .  A
C237       Br244   1.926       .  S
C238        C239   1.397   1_554  A
C238        H243   1.083       .  S
C239        C240   1.396       .  A
C240       Br241   1.922       .  S
C245        C246   1.415       .  A
C245        C250   1.411       .  A
C245        H252   1.070       .  S
C246        C247   1.433       .  A
C247        C248   1.418       .  A
C247       Br254   1.917       .  S
C248        C249   1.420       .  A
C248        H253   1.066       .  S
C249        C250   1.438       .  A
C250       Br251   1.930       .  S
C255        C470   1.581       .  S
C255        C483   1.571       .  S
C255        C490   1.604       .  S
C255        C500   1.607       .  S
C256        C440   1.607       .  S
C256        C453   1.567       .  S
C256        C460   1.564       .  S
C256        C503   1.620       .  S
C257        C400   1.580       .  S
C257        C413   1.555       .  S
C257        C423   1.593       .  S
C257        C433   1.605       .  S
C258        C373   1.616       .  S
C258        C380   1.567       .  S
C258        C393   1.582       .  S
C258        C430   1.603       .  S
N259       Mn288   2.178       .  S
N259        N773   1.313   1_455  A
N260        C267   1.351   1_455  A
N261       Mn277   2.230       .  S
N261        N263   1.319       .  A
N261        N262   1.325       .  A
N262        C268   1.355       .  A
N263       Mn796   2.193       .  S
N263        N264   1.321       .  A
N264        C268   1.347       .  A
N265       Mn277   2.153       .  S
N265        N767   1.313       .  A
N266        C775   1.346       .  A
C267        N774   1.346       .  A
C267        C360   1.448       .  S
C268        C480   1.479       .  S
N269        N275   1.315       .  A
N269        N270   1.319       .  A
N270        C278   1.352       .  A
N271        N272   1.322       .  A
N271        N273   1.315       .  A
N272        C279   1.353       .  A
N273       Mn299   2.207       .  S
N273        N274   1.324       .  A
N274        C279   1.356       .  A
N275       Mn277   2.198       .  S
N275        N276   1.322       .  A
N276        C278   1.356       .  A
C278        C420   1.482       .  S
C279        C493   1.481       .  S
N280       Mn288   2.206       .  S
N280        N281   1.321       .  A
N280        N286   1.314       .  A
N281        C289   1.358       .  A
N282       Mn300   2.224       .  S
N282        N284   1.313       .  A
N282        N283   1.325       .  A
N283        C290   1.362       .  A
N284        N285   1.317       .  A
N285        C290   1.346       .  A
N286        N287   1.319       .  A
N287        C289   1.347       .  A
Mn288       N771   2.193   1_455  S
Mn288      Cl555   2.539   1_565  S
C289        C410   1.471       .  S
C290        C473   1.487       .  S
N291       Mn807   2.208   1_455  S
N291        N292   1.318       .  A
N291        N297   1.321       .  A
N292        C302   1.350       .  A
N293       Mn300   2.168       .  S
N293        N294   1.312       .  A
N293        N803   1.313   1_455  A
N294        C557   1.346       .  A
N295       Mn299   2.177       .  S
N295        N801   1.313       .  A
N295        N296   1.316       .  A
N297       Mn300   2.197       .  S
N297        N298   1.324       .  A
N298        C302   1.350       .  A
Mn299       N799   2.208       .  S
Mn299      Cl301   2.536       .  S
Mn300      Cl809   2.543       .  S
Cl301      Mn542   2.539       .  S
Cl301      Mn808   2.543       .  S
C302        C403   1.482       .  S
C303        N548   1.346       .  A
C303        C350   1.462   1_545  S
N304       Mn333   2.219       .  S
N304        N305   1.324       .  A
N304        N310   1.313       .  A
N305        C312   1.362       .  A
N306       Mn322   2.193       .  S
N306        N308   1.313       .  A
N306        N307   1.322       .  A
N307        C313   1.355       .  A
N308        N309   1.318       .  A
N309        C313   1.350       .  A
N310        N311   1.316       .  A
N311        C312   1.344       .  A
C312        C463   1.485       .  S
C313        C390   1.466       .  S
N314       Mn852   2.206       .  S
N314        N320   1.318       .  A
N314        N315   1.322       .  A
N315        C323   1.350       .  A
N316       Mn322   2.161       .  S
N316        N826   1.312       .  A
N317        C832   1.345       .  A
N318       Mn344   2.162       .  S
N318        N824   1.312   1_455  A
N319        C324   1.350   1_455  A
N320       Mn322   2.188       .  S
N320        N321   1.321       .  A
N321        C323   1.347       .  A
C323        C450   1.469       .  S
C324        N825   1.345       .  A
C324        C363   1.447       .  S
N325       Mn333   2.174       .  S
N325        N326   1.316       .  A
N325        N839   1.314       .  A
N327       Mn345   2.220       .  S
N327        N329   1.320       .  A
N327        N328   1.322       .  A
N328        C335   1.354       .  A
N329       Mn841   2.211   1_455  S
N329        N330   1.324       .  A
N330        C335   1.354       .  A
N331       Mn345   2.172       .  S
N331        N833   1.314   1_455  A
N331        N332   1.312       .  A
N332        C588   1.350   1_455  A
Mn333       N837   2.211       .  S
Mn333      Cl346   2.543       .  S
C334        N586   1.350       .  A
C334        C353   1.462   1_545  S
C335        C370   1.497       .  S
N336        N337   1.318       .  A
N336        N342   1.315       .  A
N337        C347   1.349       .  A
N338        N339   1.323       .  A
N338        N340   1.314       .  A
N339        C348   1.356       .  A
N340       Mn344   2.191       .  S
N340        N341   1.319       .  A
N341        C348   1.353       .  A
N342       Mn345   2.217       .  S
N342        N343   1.325       .  A
N343        C347   1.359       .  A
Mn344       N822   2.206   1_455  S
Mn344      Cl600   2.542   1_465  S
Mn345      Cl854   2.534   1_455  S
Cl346      Mn598   2.542       .  S
Cl346      Mn853   2.534       .  S
C347        C443   1.475       .  S
C348        C383   1.490       .  S
C349        C354   1.392       .  A
C349        H356   1.084       .  S
C350        C859   1.412   1_565  A
C351        C858   1.412   1_545  A
C351        C352   1.384       .  A
C351       Br358   1.925       .  S
C352        C861   1.400   1_445  A
C352        H357   1.083       .  S
C353        C860   1.400   1_565  A
C354       Br355   1.923       .  S
C359        C614   1.398   1_565  A
C359        C364   1.378       .  A
C359        H366   1.084       .  S
C360        C613   1.398       .  A
C360        C361   1.404   1_655  A
C361        C362   1.393       .  A
C361       Br368   1.921       .  S
C362        C363   1.403   1_455  A
C362        H367   1.084       .  S
C363        C618   1.407       .  A
C364        C617   1.407   1_565  A
C364       Br365   1.926       .  S
C369        C370   1.402       .  A
C369        C374   1.411       .  A
C369        H376   1.083       .  S
C370        C371   1.400       .  A
C371        C372   1.398       .  A
C371       Br378   1.926       .  S
C372        C373   1.431       .  A
C372        H377   1.066       .  S
C373        C374   1.448       .  A
C374       Br375   1.939       .  S
C379        C380   1.424       .  A
C379        C384   1.391       .  A
C379        H386   1.082       .  S
C380        C381   1.434       .  A
C381        C382   1.410       .  A
C381       Br388   1.920       .  S
C382        C383   1.406       .  A
C382        H387   1.084       .  S
C383        C384   1.406       .  A
C384       Br385   1.923       .  S
C389        C390   1.387       .  A
C389        C394   1.393       .  A
C389        H396   1.086       .  S
C390        C391   1.399       .  A
C391        C392   1.403       .  A
C391       Br398   1.915       .  S
C392        C393   1.426       .  A
C392        H397   1.083       .  S
C393        C394   1.442       .  A
C394       Br395   1.927       .  S
C399        C400   1.415       .  A
C399        C404   1.408       .  A
C399        H406   1.083       .  S
C400        C401   1.445       .  A
C401        C402   1.390       .  A
C401       Br408   1.937       .  S
C402        C403   1.390       .  A
C402        H407   1.084       .  S
C403        C404   1.413       .  A
C404       Br405   1.917       .  S
C409        C410   1.389       .  A
C409        C414   1.389       .  A
C409        H416   1.084       .  S
C410        C411   1.408       .  A
C411        C412   1.404       .  A
C411       Br418   1.915       .  S
C412        C413   1.416       .  A
C412        H417   1.079       .  S
C413        C414   1.440       .  A
C414       Br415   1.928       .  S
C419        C420   1.397       .  A
C419        C424   1.401       .  A
C419        H426   1.084       .  S
C420        C421   1.401       .  A
C421        C422   1.399       .  A
C421       Br428   1.923       .  S
C422        C423   1.426       .  A
C422        H427   1.067       .  S
C423        C424   1.441       .  A
C424       Br425   1.932       .  S
C429        C430   1.413       .  A
C429        C434   1.414       .  A
C429        H436   1.059       .  S
C430        C431   1.438       .  A
C431        C432   1.409       .  A
C431       Br438   1.934       .  S
C432        C433   1.417       .  A
C432        H437   1.071       .  S
C433        C434   1.429       .  A
C434       Br435   1.915       .  S
C439        C440   1.433       .  A
C439        C444   1.403       .  A
C439        H446   1.080       .  S
C440        C441   1.455       .  A
C441        C442   1.400       .  A
C441       Br448   1.930       .  S
C442        C443   1.385       .  A
C442        H447   1.086       .  S
C443        C444   1.393       .  A
C444       Br445   1.917       .  S
C449        C450   1.386       .  A
C449        C454   1.394       .  A
C449        H456   1.084       .  S
C450        C451   1.406       .  A
C451        C452   1.404       .  A
C451       Br458   1.919       .  S
C452        C453   1.418       .  A
C452        H457   1.079       .  S
C453        C454   1.439       .  A
C454       Br455   1.918       .  S
C459        C460   1.414       .  A
C459        C464   1.407       .  A
C459        H466   1.084       .  S
C460        C461   1.436       .  A
C461        C462   1.394       .  A
C461       Br468   1.930       .  S
C462        C463   1.393       .  A
C462        H467   1.084       .  S
C463        C464   1.419       .  A
C464       Br465   1.922       .  S
C469        C470   1.415       .  A
C469        C474   1.405       .  A
C469        H476   1.083       .  S
C470        C471   1.442       .  A
C471        C472   1.396   1_554  A
C471       Br478   1.934       .  S
C472        C473   1.392       .  A
C472        H477   1.084       .  S
C473        C474   1.416   1_556  A
C474       Br475   1.921       .  S
C479        C480   1.403   1_554  A
C479        C484   1.411       .  A
C479        H486   1.084       .  S
C480        C481   1.395       .  A
C481        C482   1.397       .  A
C481       Br488   1.918       .  S
C482        C483   1.429   1_556  A
C482        H487   1.082       .  S
C483        C484   1.432       .  A
C484       Br485   1.920       .  S
C489        C490   1.428   1_556  A
C489        C494   1.398       .  A
C489        H496   1.072       .  S
C490        C491   1.440       .  A
C491        C492   1.410       .  A
C491       Br498   1.926       .  S
C492        C493   1.397   1_554  A
C492        H497   1.083       .  S
C493        C494   1.396       .  A
C494       Br495   1.922       .  S
C499        C500   1.415       .  A
C499        C504   1.411       .  A
C499        H506   1.070       .  S
C500        C501   1.433       .  A
C501        C502   1.418       .  A
C501       Br508   1.917       .  S
C502        C503   1.420       .  A
C502        H507   1.066       .  S
C503        C504   1.438       .  A
C504       Br505   1.930       .  S
C509        C724   1.581       .  S
C509        C737   1.571       .  S
C509        C744   1.604       .  S
C509        C754   1.607       .  S
C510        C694   1.607       .  S
C510        C707   1.567       .  S
C510        C714   1.564       .  S
C510        C757   1.620       .  S
C511        C654   1.580       .  S
C511        C667   1.555       .  S
C511        C677   1.593       .  S
C511        C687   1.605       .  S
C512        C627   1.616       .  S
C512        C634   1.567       .  S
C512        C647   1.582       .  S
C512        C684   1.603       .  S
N513       Mn542   2.178       .  S
N513        N768   1.317   1_556  A
N514        N767   1.317   1_554  A
N514        C521   1.351   1_565  A
N515       Mn531   2.230       .  S
N515        N517   1.319       .  A
N515        N516   1.325       .  A
N516        C522   1.355       .  A
N517        N518   1.321       .  A
N518        C522   1.347       .  A
N519       Mn531   2.153       .  S
N519        N774   1.309   1_556  A
N520        N773   1.309   1_544  A
C521        C614   1.448       .  S
C522        C734   1.479       .  S
N523       Mn807   2.207       .  S
N523        N529   1.315       .  A
N523        N524   1.319       .  A
N524        C532   1.352       .  A
N525       Mn785   2.219   1_545  S
N525        N526   1.322       .  A
N525        N527   1.315       .  A
N526        C533   1.353       .  A
N527       Mn553   2.207       .  S
N527        N528   1.324       .  A
N528        C533   1.356       .  A
N529       Mn531   2.198       .  S
N529        N530   1.322       .  A
N530        C532   1.356       .  A
Mn531       N779   2.219       .  S
Mn531      Cl809   2.542   1_655  S
C532        C674   1.482       .  S
C533        C747   1.481       .  S
N534       Mn542   2.206       .  S
N534        N535   1.321       .  A
N534        N540   1.314       .  A
N535        C543   1.358       .  A
N536       Mn554   2.224       .  S
N536        N538   1.313       .  A
N536        N537   1.325       .  A
N537        C544   1.362       .  A
N538       Mn796   2.177   1_545  S
N538        N539   1.317       .  A
N539        C544   1.346       .  A
N540       Mn808   2.184       .  S
N540        N541   1.319       .  A
N541        C543   1.347       .  A
Mn542       N792   2.177       .  S
C543        C664   1.471       .  S
C544        C727   1.487       .  S
N545        N546   1.318       .  A
N545        N551   1.321       .  A
N546        C556   1.350       .  A
N547       Mn554   2.168       .  S
N547        N548   1.312       .  A
N549       Mn553   2.177       .  S
N549        N550   1.316       .  A
N550        C811   1.352   1_655  A
N551       Mn554   2.196       .  S
N551        N552   1.324       .  A
N552        C556   1.350       .  A
Mn553       N777   2.207   1_545  S
Mn553      Cl555   2.536   1_655  S
Mn554       N794   2.184   1_545  S
Cl555      Mn785   2.542   1_445  S
C556        C657   1.482       .  S
C557        N804   1.352   1_455  A
C557        C604   1.462       .  S
N558       Mn587   2.219       .  S
N558        N559   1.324       .  A
N558        N564   1.313       .  A
N559        C566   1.362       .  A
N560       Mn576   2.193       .  S
N560        N562   1.313       .  A
N560        N561   1.322       .  A
N561        C567   1.355       .  A
N562       Mn841   2.200       .  S
N562        N563   1.318       .  A
N563        C567   1.350       .  A
N564       Mn830   2.176   1_545  S
N564        N565   1.316       .  A
N565        C566   1.344       .  A
C566        C717   1.485       .  S
C567        C644   1.466       .  S
N568        N574   1.318       .  A
N568        N569   1.322       .  A
N569        C577   1.350       .  A
N570       Mn576   2.161       .  S
N570        N825   1.310       .  A
N571        N824   1.310       .  A
N572       Mn598   2.162       .  S
N572        N827   1.316       .  A
N573        N826   1.316       .  A
N573        C578   1.350       .  A
N574       Mn576   2.188       .  S
N574        N575   1.321       .  A
N575        C577   1.347       .  A
Mn576       N818   2.176       .  S
Mn576      Cl854   2.533       .  S
C577        C704   1.469       .  S
C578        C617   1.447   1_565  S
N579       Mn587   2.174       .  S
N579        N580   1.316       .  A
N580        C842   1.350       .  A
N581       Mn599   2.220       .  S
N581        N583   1.320       .  A
N581        N582   1.322       .  A
N582        C589   1.354       .  A
N583        N584   1.324       .  A
N584        C589   1.354       .  A
N585       Mn599   2.172       .  S
N585        N586   1.312       .  A
Mn587       N816   2.200   1_545  S
Mn587      Cl600   2.543       .  S
C588        N834   1.350       .  A
C588        C607   1.462       .  S
C589        C624   1.497       .  S
N590       Mn852   2.196   1_545  S
N590        N591   1.318       .  A
N590        N596   1.315       .  A
N591        C601   1.349       .  A
N592       Mn853   2.216       .  S
N592        N593   1.323       .  A
N592        N594   1.314       .  A
N593        C602   1.356       .  A
N594       Mn598   2.191       .  S
N594        N595   1.319       .  A
N595        C602   1.353       .  A
N596       Mn599   2.217       .  S
N596        N597   1.325       .  A
N597        C601   1.359       .  A
Mn598       N844   2.196       .  S
Mn599       N846   2.216   1_545  S
Cl600      Mn830   2.533   1_545  S
C601        C697   1.475       .  S
C602        C637   1.490       .  S
C603        C858   1.404   1_655  A
C603        C608   1.392       .  A
C603        H610   1.084       .  S
C604        C857   1.404   1_455  A
C605        C606   1.384       .  A
C605       Br612   1.925       .  S
C606        H611   1.083       .  S
C607        C862   1.410       .  A
C608        C861   1.410       .  A
C608       Br609   1.923       .  S
C613        C618   1.378       .  A
C613        H620   1.084       .  S
C614        C615   1.404       .  A
C615        C616   1.393       .  A
C615       Br622   1.921       .  S
C616        C617   1.403       .  A
C616        H621   1.084       .  S
C618       Br619   1.926       .  S
C623        C624   1.402       .  A
C623        C628   1.411       .  A
C623        H630   1.083       .  S
C624        C625   1.400       .  A
C625        C626   1.398       .  A
C625       Br632   1.926       .  S
C626        C627   1.431       .  A
C626        H631   1.066       .  S
C627        C628   1.448       .  A
C628       Br629   1.939       .  S
C633        C634   1.424       .  A
C633        C638   1.391       .  A
C633        H640   1.082       .  S
C634        C635   1.434       .  A
C635        C636   1.410       .  A
C635       Br642   1.920       .  S
C636        C637   1.406       .  A
C636        H641   1.084       .  S
C637        C638   1.406       .  A
C638       Br639   1.923       .  S
C643        C644   1.387       .  A
C643        C648   1.393       .  A
C643        H650   1.086       .  S
C644        C645   1.399       .  A
C645        C646   1.403       .  A
C645       Br652   1.915       .  S
C646        C647   1.426       .  A
C646        H651   1.083       .  S
C647        C648   1.442       .  A
C648       Br649   1.927       .  S
C653        C654   1.415       .  A
C653        C658   1.408       .  A
C653        H660   1.083       .  S
C654        C655   1.445       .  A
C655        C656   1.390       .  A
C655       Br662   1.937       .  S
C656        C657   1.390       .  A
C656        H661   1.084       .  S
C657        C658   1.413       .  A
C658       Br659   1.917       .  S
C663        C664   1.389       .  A
C663        C668   1.389       .  A
C663        H670   1.084       .  S
C664        C665   1.408       .  A
C665        C666   1.404       .  A
C665       Br672   1.915       .  S
C666        C667   1.416       .  A
C666        H671   1.079       .  S
C667        C668   1.440       .  A
C668       Br669   1.928       .  S
C673        C674   1.397       .  A
C673        C678   1.401       .  A
C673        H680   1.084       .  S
C674        C675   1.401       .  A
C675        C676   1.399       .  A
C675       Br682   1.923       .  S
C676        C677   1.426       .  A
C676        H681   1.067       .  S
C677        C678   1.441       .  A
C678       Br679   1.932       .  S
C683        C684   1.413       .  A
C683        C688   1.414       .  A
C683        H690   1.059       .  S
C684        C685   1.438       .  A
C685        C686   1.409       .  A
C685       Br692   1.934       .  S
C686        C687   1.417       .  A
C686        H691   1.071       .  S
C687        C688   1.429       .  A
C688       Br689   1.915       .  S
C693        C694   1.433       .  A
C693        C698   1.403       .  A
C693        H700   1.080       .  S
C694        C695   1.455       .  A
C695        C696   1.400       .  A
C695       Br702   1.930       .  S
C696        C697   1.385       .  A
C696        H701   1.086       .  S
C697        C698   1.393       .  A
C698       Br699   1.917       .  S
C703        C704   1.386       .  A
C703        C708   1.394       .  A
C703        H710   1.084       .  S
C704        C705   1.406       .  A
C705        C706   1.404       .  A
C705       Br712   1.919       .  S
C706        C707   1.418       .  A
C706        H711   1.079       .  S
C707        C708   1.439       .  A
C708       Br709   1.918       .  S
C713        C714   1.414       .  A
C713        C718   1.407       .  A
C713        H720   1.084       .  S
C714        C715   1.436       .  A
C715        C716   1.394       .  A
C715       Br722   1.930       .  S
C716        C717   1.393       .  A
C716        H721   1.084       .  S
C717        C718   1.419       .  A
C718       Br719   1.922       .  S
C723        C724   1.415       .  A
C723        C728   1.405       .  A
C723        H730   1.083       .  S
C724        C725   1.442       .  A
C725        C726   1.396   1_554  A
C725       Br732   1.934       .  S
C726        C727   1.392       .  A
C726        H731   1.084       .  S
C727        C728   1.416   1_556  A
C728       Br729   1.921       .  S
C733        C734   1.403   1_554  A
C733        C738   1.411       .  A
C733        H740   1.084       .  S
C734        C735   1.395       .  A
C735        C736   1.397       .  A
C735       Br742   1.918       .  S
C736        C737   1.429   1_556  A
C736        H741   1.082       .  S
C737        C738   1.432       .  A
C738       Br739   1.920       .  S
C743        C744   1.428   1_556  A
C743        C748   1.398       .  A
C743        H750   1.072       .  S
C744        C745   1.440       .  A
C745        C746   1.410       .  A
C745       Br752   1.926       .  S
C746        C747   1.397   1_554  A
C746        H751   1.083       .  S
C747        C748   1.396       .  A
C748       Br749   1.922       .  S
C753        C754   1.415       .  A
C753        C758   1.411       .  A
C753        H760   1.070       .  S
C754        C755   1.433       .  A
C755        C756   1.418       .  A
C755       Br762   1.917       .  S
C756        C757   1.420       .  A
C756        H761   1.066       .  S
C757        C758   1.438       .  A
C758       Br759   1.930       .  S
C763        C978   1.581       .  S
C763        C991   1.571       .  S
C763        C998   1.604       .  S
C763       C1008   1.607       .  S
C764        C948   1.607       .  S
C764        C961   1.567       .  S
C764        C968   1.564       .  S
C764       C1011   1.620       .  S
C765        C908   1.580       .  S
C765        C921   1.555       .  S
C765        C931   1.593       .  S
C765        C941   1.605       .  S
C766        C881   1.616       .  S
C766        C888   1.567       .  S
C766        C901   1.582       .  S
C766        C938   1.603       .  S
N767       Mn796   2.178       .  S
N768        C775   1.351       .  A
N769       Mn785   2.230       .  S
N769        N771   1.319       .  A
N769        N770   1.325       .  A
N770        C776   1.355       .  A
N771        N772   1.321       .  A
N772        C776   1.347       .  A
N773       Mn785   2.153       .  S
C775        C868   1.448       .  S
C776        C988   1.479       .  S
N777        N783   1.315       .  A
N777        N778   1.319       .  A
N778        C786   1.352       .  A
N779        N780   1.322       .  A
N779        N781   1.315       .  A
N780        C787   1.353       .  A
N781       Mn807   2.207       .  S
N781        N782   1.324       .  A
N782        C787   1.356       .  A
N783       Mn785   2.198       .  S
N783        N784   1.322       .  A
N784        C786   1.356       .  A
C786        C928   1.482       .  S
C787       C1001   1.481       .  S
N788       Mn796   2.206       .  S
N788        N789   1.321       .  A
N788        N794   1.314       .  A
N789        C797   1.358       .  A
N790       Mn808   2.224       .  S
N790        N792   1.313       .  A
N790        N791   1.325       .  A
N791        C798   1.362       .  A
N792        N793   1.317       .  A
N793        C798   1.346       .  A
N794        N795   1.319       .  A
N795        C797   1.347       .  A
C797        C918   1.471       .  S
C798        C981   1.487       .  S
N799        N800   1.318       .  A
N799        N805   1.321       .  A
N800        C810   1.350       .  A
N801       Mn808   2.168       .  S
N801        N802   1.312       .  A
N803       Mn807   2.177       .  S
N803        N804   1.316       .  A
N805       Mn808   2.197       .  S
N805        N806   1.324       .  A
N806        C810   1.350       .  A
Mn807      Cl809   2.536   1_655  S
C810        C911   1.482       .  S
C811        C858   1.462   1_545  S
N812       Mn841   2.219       .  S
N812        N813   1.324       .  A
N812        N818   1.313       .  A
N813        C820   1.362       .  A
N814       Mn830   2.193       .  S
N814        N816   1.313       .  A
N814        N815   1.322       .  A
N815        C821   1.355       .  A
N816        N817   1.318       .  A
N817        C821   1.350       .  A
N818        N819   1.316       .  A
N819        C820   1.344       .  A
C820        C971   1.485       .  S
C821        C898   1.466       .  S
N822        N828   1.318       .  A
N822        N823   1.322       .  A
N823        C831   1.350       .  A
N824       Mn830   2.161       .  S
N826       Mn852   2.162       .  S
N827        C832   1.350       .  A
N828       Mn830   2.188       .  S
N828        N829   1.321       .  A
N829        C831   1.347       .  A
C831        C958   1.469       .  S
C832        C871   1.447       .  S
N833       Mn841   2.174       .  S
N833        N834   1.316       .  A
N835       Mn853   2.220       .  S
N835        N837   1.320       .  A
N835        N836   1.322       .  A
N836        C843   1.354       .  A
N837        N838   1.324       .  A
N838        C843   1.354       .  A
N839       Mn853   2.172       .  S
N839        N840   1.312       .  A
Mn841      Cl854   2.543       .  S
C842        C861   1.462   1_545  S
C843        C878   1.497       .  S
N844        N845   1.318       .  A
N844        N850   1.315       .  A
N845        C855   1.349       .  A
N846        N847   1.323       .  A
N846        N848   1.314       .  A
N847        C856   1.356       .  A
N848       Mn852   2.191       .  S
N848        N849   1.319       .  A
N849        C856   1.353       .  A
N850       Mn853   2.217       .  S
N850        N851   1.325       .  A
N851        C855   1.359       .  A
C855        C951   1.475       .  S
C856        C891   1.490       .  S
C857        C862   1.392       .  A
C857        H864   1.084       .  S
C859        C860   1.384       .  A
C859       Br866   1.925       .  S
C860        H865   1.083       .  S
C862       Br863   1.923       .  S
C867        C872   1.378       .  A
C867        H874   1.084       .  S
C868        C869   1.404       .  A
C869        C870   1.393       .  A
C869       Br876   1.921       .  S
C870        C871   1.403       .  A
C870        H875   1.084       .  S
C872       Br873   1.926       .  S
C877        C878   1.402       .  A
C877        C882   1.411       .  A
C877        H884   1.083       .  S
C878        C879   1.400       .  A
C879        C880   1.398       .  A
C879       Br886   1.926       .  S
C880        C881   1.431       .  A
C880        H885   1.066       .  S
C881        C882   1.448       .  A
C882       Br883   1.939       .  S
C887        C888   1.424       .  A
C887        C892   1.391       .  A
C887        H894   1.082       .  S
C888        C889   1.434       .  A
C889        C890   1.410       .  A
C889       Br896   1.920       .  S
C890        C891   1.406       .  A
C890        H895   1.084       .  S
C891        C892   1.406       .  A
C892       Br893   1.923       .  S
C897        C898   1.387       .  A
C897        C902   1.393       .  A
C897        H904   1.086       .  S
C898        C899   1.399       .  A
C899        C900   1.403       .  A
C899       Br906   1.915       .  S
C900        C901   1.426       .  A
C900        H905   1.083       .  S
C901        C902   1.442       .  A
C902       Br903   1.927       .  S
C907        C908   1.415       .  A
C907        C912   1.408       .  A
C907        H914   1.083       .  S
C908        C909   1.445       .  A
C909        C910   1.390       .  A
C909       Br916   1.937       .  S
C910        C911   1.390       .  A
C910        H915   1.084       .  S
C911        C912   1.413       .  A
C912       Br913   1.917       .  S
C917        C918   1.389       .  A
C917        C922   1.389       .  A
C917        H924   1.084       .  S
C918        C919   1.408       .  A
C919        C920   1.404       .  A
C919       Br926   1.915       .  S
C920        C921   1.416       .  A
C920        H925   1.079       .  S
C921        C922   1.440       .  A
C922       Br923   1.928       .  S
C927        C928   1.397       .  A
C927        C932   1.401       .  A
C927        H934   1.084       .  S
C928        C929   1.401       .  A
C929        C930   1.399       .  A
C929       Br936   1.923       .  S
C930        C931   1.426       .  A
C930        H935   1.067       .  S
C931        C932   1.441       .  A
C932       Br933   1.932       .  S
C937        C938   1.413       .  A
C937        C942   1.414       .  A
C937        H944   1.059       .  S
C938        C939   1.438       .  A
C939        C940   1.409       .  A
C939       Br946   1.934       .  S
C940        C941   1.417       .  A
C940        H945   1.071       .  S
C941        C942   1.429       .  A
C942       Br943   1.915       .  S
C947        C948   1.433       .  A
C947        C952   1.403       .  A
C947        H954   1.080       .  S
C948        C949   1.455       .  A
C949        C950   1.400       .  A
C949       Br956   1.930       .  S
C950        C951   1.385       .  A
C950        H955   1.086       .  S
C951        C952   1.393       .  A
C952       Br953   1.917       .  S
C957        C958   1.386       .  A
C957        C962   1.394       .  A
C957        H964   1.084       .  S
C958        C959   1.406       .  A
C959        C960   1.404       .  A
C959       Br966   1.919       .  S
C960        C961   1.418       .  A
C960        H965   1.079       .  S
C961        C962   1.439       .  A
C962       Br963   1.918       .  S
C967        C968   1.414       .  A
C967        C972   1.407       .  A
C967        H974   1.084       .  S
C968        C969   1.436       .  A
C969        C970   1.394       .  A
C969       Br976   1.930       .  S
C970        C971   1.393       .  A
C970        H975   1.084       .  S
C971        C972   1.419       .  A
C972       Br973   1.922       .  S
C977        C978   1.415       .  A
C977        C982   1.405       .  A
C977        H984   1.083       .  S
C978        C979   1.442       .  A
C979        C980   1.396   1_554  A
C979       Br986   1.934       .  S
C980        C981   1.392       .  A
C980        H985   1.084       .  S
C981        C982   1.416   1_556  A
C982       Br983   1.921       .  S
C987        C988   1.403   1_554  A
C987        C992   1.411       .  A
C987        H994   1.084       .  S
C988        C989   1.395       .  A
C989        C990   1.397       .  A
C989       Br996   1.918       .  S
C990        C991   1.429   1_556  A
C990        H995   1.082       .  S
C991        C992   1.432       .  A
C992       Br993   1.920       .  S
C997        C998   1.428   1_556  A
C997       C1002   1.398       .  A
C997       H1004   1.072       .  S
C998        C999   1.440       .  A
C999       C1000   1.410       .  A
C999      Br1006   1.926       .  S
C1000      C1001   1.397   1_554  A
C1000      H1005   1.083       .  S
C1001      C1002   1.396       .  A
C1002     Br1003   1.922       .  S
C1007      C1008   1.415       .  A
C1007      C1012   1.411       .  A
C1007      H1014   1.070       .  S
C1008      C1009   1.433       .  A
C1009      C1010   1.418       .  A
C1009     Br1016   1.917       .  S
C1010      C1011   1.420       .  A
C1010      H1015   1.066       .  S
C1011      C1012   1.438       .  A
C1012     Br1013   1.930       .  S
