geometry optimzed in LAMMPS
_audit_creation_date              2020-11-30 
_audit_creation_method            'lammps2cif' 
_symmetry_space_group_name_H-M    'P1' 
_symmetry_Int_Tables_number       1 
_symmetry_cell_setting            triclinic 
loop_ 
_symmetry_equiv_pos_as_xyz 
  x,y,z 
_cell_length_a                    42.14449626 
_cell_length_b                    42.002617476177576 
_cell_length_c                    45.66559962232542 
_cell_angle_alpha                 89.95406376675257 
_cell_angle_beta                  90.09474239247677 
_cell_angle_gamma                 120.2717273527379 
loop_ 
_atom_site_label 
_atom_site_type_symbol 
_atom_site_fract_x 
_atom_site_fract_y 
_atom_site_fract_z 
_atom_site_charge 
C1          C  0.46059825  0.06691122  0.31942461     0.42700
N2          N  0.48939600  0.05840915  0.28409510     0.01500
C3          C  0.41714003  0.90420379  0.19522381    -0.06300
H4          H  0.42053846  0.87937188  0.31097950     0.07000
C5          C  0.56211556  0.95763889  0.30272965    -0.06700
Co6        Co  0.43860779  0.99003421  0.25140976     0.74200
N7          N  0.43306348  0.92535235  0.28286528    -0.25900
Co8        Co  0.46980042  0.92802806  0.25080084     0.74100
C9          C  0.53720064  0.92354777  0.31717746     0.42800
N10         N  0.57618659  0.04205280  0.28331280     0.01200
N11         N  0.50790141  0.93265614  0.28296575     0.01300
N12         N  0.40009609  0.94725714  0.19746535    -0.46700
H13         H  0.40693618  0.01339974  0.30866241     0.07000
N14         N  0.42174419  0.94941592  0.28249826     0.01600
N15         N  0.50749780  0.93331324  0.21856632     0.01300
C16         C  0.53487312  0.92540694  0.18202692     0.42900
N17         N  0.56484402  0.06614974  0.28354337    -0.25300
C18         C  0.43561329  0.03365467  0.19965058    -0.06200
N19         N  0.49369498  0.08132155  0.30580377    -0.46400
N20         N  0.50248746  0.91055716  0.19659633    -0.46600
C21         C  0.46054627  0.06744377  0.18459288     0.42700
N22         N  0.42242118  0.95085736  0.21911818     0.01500
N23         N  0.56520144  0.06645701  0.21955815    -0.25300
N24         N  0.45566189  0.02990792  0.28324509    -0.25800
N25         N  0.57670996  0.04248525  0.22032368     0.01200
H26         H  0.58098841  0.11428572  0.19225065     0.07100
H27         H  0.58918723  0.97848651  0.19313000     0.07100
N28         N  0.43317555  0.92631922  0.21850319    -0.25900
N29         N  0.54166975  0.96113353  0.28215660    -0.25500
N30         N  0.48969412  0.05887102  0.21945009     0.01500
C31         C  0.39297903  0.91463917  0.31878927     0.42900
C32         C  0.58294099  0.09080079  0.30487536    -0.06700
N33         N  0.54121281  0.96180279  0.21926714    -0.25500
H34         H  0.59105122  0.97638283  0.30658803     0.07100
N35         N  0.39794393  0.94395129  0.30330545    -0.46700
H36         H  0.57974226  0.11417069  0.30976608     0.07100
C37         C  0.60837638  0.07888835  0.18581624     0.42800
C38         C  0.43558119  0.03281233  0.30453583    -0.06200
Co39       Co  0.52773146  0.06369299  0.25162419     0.73800
N40         N  0.60162288  0.04897135  0.30323662    -0.46400
C41         C  0.39575623  0.91887394  0.18110924     0.43000
N42         N  0.49377695  0.08205326  0.19803561    -0.46400
Co43       Co  0.55917742  0.00184559  0.25131963     0.73900
C44         C  0.56049396  0.95922441  0.19725048    -0.06700
C45         C  0.41647915  0.90202866  0.30528933    -0.06300
N46         N  0.45593704  0.03055734  0.22049957    -0.25800
N47         N  0.50383352  0.90909151  0.30406510    -0.46600
H48         H  0.42037766  0.88122791  0.18878578     0.07100
C49         C  0.58345144  0.09060222  0.19787022    -0.06700
Cl50       Cl  0.49888198  0.99595383  0.25135944    -0.49700
C51         C  0.60761878  0.07932969  0.31787631     0.42800
H52         H  0.40670778  0.01469294  0.19609478     0.07000
N53         N  0.60238241  0.04899098  0.20085652    -0.46400
C54         C  0.08107411  0.61155556  0.32150652     0.42700
N55         N  0.07372349  0.57595095  0.28560232     0.01500
C56         C  0.92097742  0.50028340  0.19556049    -0.06300
H57         H  0.89424861  0.47201185  0.31121392     0.07000
C58         C  0.96998293  0.40432457  0.30185694    -0.06700
Co59       Co  0.00709771  0.56232414  0.25228469     0.74200
N60         N  0.94136494  0.50426682  0.28344568    -0.25900
Co61       Co  0.94325919  0.46955177  0.25060157     0.74100
C62         C  0.93708266  0.39692822  0.31717606     0.42800
N63         N  0.05391981  0.47182058  0.28297623     0.01200
N64         N  0.94654690  0.43497329  0.28239632     0.01300
N65         N  0.96364076  0.56081407  0.19911782    -0.46700
H66         H  0.03086032  0.61586027  0.30919003     0.07000
N67         N  0.96637703  0.53962482  0.28354521     0.01600
N68         N  0.94766621  0.43635708  0.21776239     0.01300
C69         C  0.93889431  0.39969064  0.18178182     0.42900
N70         N  0.07946837  0.50695810  0.28442686    -0.25300
C71         C  0.05236111  0.60889878  0.20110293    -0.06200
N72         N  0.09577445  0.59315679  0.30813325    -0.46400
N73         N  0.92405751  0.41715653  0.19656167    -0.46600
C74         C  0.08571478  0.61670294  0.18642950     0.42700
N75         N  0.96763012  0.54118097  0.21990713     0.01500
N76         N  0.08194967  0.50953738  0.22056945    -0.25300
N77         N  0.04628768  0.58256377  0.28410116    -0.25800
N78         N  0.05659836  0.47433111  0.21982363     0.01200
H79         H  0.13237369  0.54148621  0.19662586     0.07100
H80         H  0.99113986  0.39792925  0.19250370     0.07100
N81         N  0.94300308  0.50573244  0.21866963    -0.25900
N82         N  0.97389805  0.42824141  0.28104007    -0.25500
N83         N  0.07573059  0.57833270  0.22101675     0.01500
C84         C  0.93203043  0.53452042  0.32000358     0.42900
C85         C  0.10239008  0.51091657  0.30661071    -0.06700
N86         N  0.97599231  0.43109545  0.21803308    -0.25500
H87         H  0.98794815  0.39332181  0.30564892     0.07100
N88         N  0.96170821  0.55847814  0.30461061    -0.46700
H89         H  0.12653144  0.53641188  0.31301657     0.07100
C90         C  0.09521565  0.47892181  0.18717688     0.42800
C91         C  0.04895492  0.60500252  0.30557643    -0.06200
Co92       Co  0.07904290  0.54359403  0.25293000     0.73800
N93         N  0.05758981  0.45119713  0.30292019    -0.46400
C94         C  0.93503551  0.53709306  0.18257442     0.43000
N95         N  0.09916457  0.59697374  0.19961568    -0.46400
Co96       Co  0.01502455  0.45119706  0.25035406     0.73900
C97         C  0.97294931  0.40864606  0.19625227    -0.06700
C98         C  0.91805760  0.49826279  0.30576998    -0.06300
N99         N  0.04814597  0.58480396  0.22181867    -0.25800
N100        N  0.92343838  0.41652919  0.30405884    -0.46600
H101        H  0.89768004  0.47412754  0.18929094     0.07100
C102        C  0.10764858  0.51539534  0.20041736    -0.06700
Cl103      Cl  0.01113038  0.50668279  0.25147397    -0.49700
C104        C  0.08732418  0.47353619  0.31886060     0.42800
H105        H  0.03435556  0.61980514  0.19708613     0.07000
N106        N  0.06348278  0.45528153  0.20048038    -0.46400
C107        C  0.39129043  0.46025010  0.31889195     0.42700
N108        N  0.43155418  0.49069407  0.28571964     0.01500
C109        C  0.51056561  0.41811043  0.19507384    -0.06300
H110        H  0.54159654  0.41891677  0.30918278     0.07000
C111        C  0.60476798  0.56373760  0.30476913    -0.06700
Co112      Co  0.44885741  0.43988711  0.25342438     0.74200
N113        N  0.50835850  0.43412942  0.28350727    -0.25900
Co114      Co  0.54223597  0.47169152  0.25143977     0.74100
C115        C  0.61442209  0.53894856  0.31907195     0.42800
N116        N  0.53561593  0.57857459  0.28411159     0.01200
N117        N  0.57630727  0.50993921  0.28398423     0.01300
N118        N  0.45046077  0.39944804  0.20058688    -0.46700
H119        H  0.39264575  0.40733331  0.30884536     0.07000
N120        N  0.47305984  0.42319994  0.28409105     0.01600
N121        N  0.57508960  0.51024792  0.21964766     0.01300
C122        C  0.61360264  0.53935020  0.18522814     0.42900
N123        N  0.50003785  0.56663161  0.28495641    -0.25300
C124        C  0.39906015  0.43538158  0.20313042    -0.06200
N125        N  0.41063570  0.49385038  0.30589088    -0.46400
N126        N  0.59436956  0.50614988  0.19864760    -0.46600
C127        C  0.38922637  0.46000499  0.18894713     0.42700
N128        N  0.47073034  0.42319759  0.22101073     0.01500
N129        N  0.49917579  0.56587561  0.22054219    -0.25300
N130        N  0.42680743  0.45716733  0.28519046    -0.25800
N131        N  0.53467473  0.57747681  0.22120194     0.01200
H132        H  0.46667520  0.57911261  0.19181115     0.07100
H133        H  0.61559303  0.59365667  0.19627294     0.07100
N134        N  0.50613575  0.43470725  0.21888567    -0.25900
N135        N  0.58135798  0.54362083  0.28364253    -0.25500
N136        N  0.43020541  0.49029862  0.22167042     0.01500
C137        C  0.47905334  0.39182260  0.31829499     0.42900
C138        C  0.49394838  0.58418784  0.30695009    -0.06700
N139        N  0.58099479  0.54416635  0.22074750    -0.25500
H140        H  0.61439258  0.59252354  0.30895950     0.07100
N141        N  0.45474249  0.39811356  0.30426888    -0.46700
H142        H  0.46763002  0.58096518  0.31279927     0.07100
C143        C  0.52950989  0.60588232  0.18435090     0.42800
C144        C  0.40239182  0.43623712  0.30538490    -0.06200
Co145      Co  0.46462154  0.52899392  0.25321730     0.73800
N146        N  0.55472021  0.60411119  0.30392616    -0.46400
C147        C  0.47307703  0.39462220  0.18305609     0.43000
N148        N  0.40985341  0.49388978  0.20115860    -0.46400
Co149      Co  0.55831658  0.56120440  0.25250125     0.73900
C150        C  0.60493719  0.56455952  0.19994584    -0.06700
C151        C  0.51507273  0.41593738  0.30462346    -0.06300
N152        N  0.42438049  0.45640298  0.22286412    -0.25800
N153        N  0.59584786  0.50589548  0.30506362    -0.46600
H154        H  0.53634471  0.42127502  0.18762878     0.07100
C155        C  0.49301874  0.58242068  0.19768428    -0.06700
Cl156      Cl  0.50351030  0.50046676  0.25270091    -0.49700
C157        C  0.53050156  0.60931311  0.31917702     0.42800
H158        H  0.38858832  0.40631498  0.19963792     0.07000
N159        N  0.55349134  0.60122316  0.20037652    -0.46400
C160        C  0.81945437  0.47553943  0.00036407     0.42700
N161        N  0.79266028  0.50494651  0.01349182     0.01500
C162        C  0.75442707  0.61473047  0.42325013    -0.06300
H163        H  0.88817701  0.63881663  0.41635312     0.07000
C164        C  0.89897455  0.67509561  0.02996827    -0.06700
Co165      Co  0.77133052  0.53659267  0.46383922     0.74200
N166        N  0.84064867  0.60148733  0.44232621    -0.25900
Co167      Co  0.82122411  0.63154572  0.46686727     0.74100
C168        C  0.92570657  0.68740452  0.50807278     0.42800
N169        N  0.83732231  0.59481463  0.06392433     0.01200
N170        N  0.86940166  0.65710414  0.49300070     0.01300
N171        N  0.72498779  0.55270806  0.42484423    -0.46700
H172        H  0.80790187  0.48180486  0.45362650     0.07000
N173        N  0.82072638  0.56513001  0.44251029     0.01600
N174        N  0.79935895  0.65823877  0.49225657     0.01300
C175        C  0.76495178  0.68195311  0.00386457     0.42900
N176        N  0.81896928  0.55867132  0.06092401    -0.25300
C177        C  0.68726662  0.48992662  0.47468702    -0.06200
N178        N  0.80801246  0.48649476  0.02375414    -0.46400
N179        N  0.78262606  0.67573616  0.48228379    -0.46600
C180        C  0.66546001  0.47313555  0.00238004     0.42700
N181        N  0.75383485  0.56744316  0.44212869     0.01500
N182        N  0.75030173  0.55661333  0.06199380    -0.25300
N183        N  0.78950154  0.50609924  0.48611801    -0.25800
N184        N  0.76631758  0.59261639  0.06474725     0.01200
H185        H  0.70504504  0.51092138  0.08216059     0.07100
H186        H  0.77003700  0.67095524  0.05264442     0.07100
N187        N  0.77206272  0.60375945  0.44193959    -0.25900
N188        N  0.86493097  0.65556426  0.01913635    -0.25500
N189        N  0.72226785  0.50325232  0.01457021     0.01500
C190        C  0.86218371  0.57562969  0.41060908     0.42900
C191        C  0.83484073  0.54392498  0.07656186    -0.06700
N192        N  0.79374505  0.65268778  0.01948603    -0.25500
H193        H  0.90547962  0.67722471  0.05298464     0.07100
N194        N  0.83242963  0.54910041  0.42419709    -0.46700
H195        H  0.82425453  0.51467792  0.07913796     0.07100
C196        C  0.72008869  0.57026659  0.09394352     0.42800
C197        C  0.80375057  0.48596309  0.47634265    -0.06200
Co198      Co  0.77085785  0.53043326  0.03792258     0.73800
N199        N  0.86605697  0.60596502  0.08189147    -0.46400
C200        C  0.72272229  0.58013969  0.41197589     0.43000
N201        N  0.68869871  0.48397677  0.02540689    -0.46400
Co202      Co  0.81612514  0.62511094  0.04239775     0.73900
C203        C  0.77545876  0.66887352  0.02980483    -0.06700
C204        C  0.86823634  0.61098013  0.42279976    -0.06300
N205        N  0.72147903  0.50861705  0.48531041    -0.25800
N206        N  0.90400836  0.67626136  0.48384824    -0.46600
H207        H  0.76333413  0.64304203  0.41778281     0.07100
C208        C  0.72129008  0.54028201  0.07928268    -0.06700
Cl209      Cl  0.79416340  0.58012510  0.00210380    -0.49700
C210        C  0.86626169  0.57488202  0.09020231     0.42800
H211        H  0.68009957  0.48606680  0.45171957     0.07000
N212        N  0.74912879  0.60230552  0.08413340    -0.46400
C213        C  0.66949264  0.19915835  0.00469434     0.42700
N214        N  0.72630125  0.22353281  0.01598078     0.01500
C215        C  0.87220083  0.25698030  0.41938234    -0.06300
H216        H  0.75776426  0.12116787  0.41174260     0.07000
C217        C  0.77455365  0.10471913  0.03242391    -0.06700
Co218      Co  0.77701671  0.23995149  0.45909400     0.74200
N219        N  0.77097690  0.17071147  0.43591525    -0.25900
Co220      Co  0.81971354  0.18830197  0.46048572     0.74100
C221        C  0.76745117  0.08127017  0.49643155     0.42800
N222        N  0.76324940  0.17292729  0.06639907     0.01200
N223        N  0.79537450  0.13864692  0.48433315     0.01300
N224        N  0.84168612  0.28822536  0.42218214    -0.46700
H225        H  0.68525073  0.20449214  0.44787562     0.07000
N226        N  0.75552694  0.19130418  0.43628551     0.01600
N227        N  0.86720770  0.20744222  0.48650648     0.01300
C228        C  0.92230746  0.23302267  0.00741642     0.42900
N229        N  0.74947069  0.19485947  0.06378065    -0.25300
C230        C  0.81699313  0.32352512  0.47346524    -0.06200
N231        N  0.69336355  0.21099384  0.02719654    -0.46400
N232        N  0.90152358  0.22225753  0.47691570    -0.46600
C233        C  0.82873901  0.34652041  0.99968488     0.42700
N234        N  0.82600168  0.25812296  0.43823890     0.01500
N235        N  0.82005140  0.25989051  0.06435234    -0.25300
N236        N  0.72767808  0.22105376  0.48053728    -0.25800
N237        N  0.83613362  0.24012419  0.06769547     0.01200
H238        H  0.82439542  0.30705455  0.08647233     0.07100
H239        H  0.90549063  0.22831044  0.05608199     0.07100
N240        N  0.84297434  0.23899573  0.43740052    -0.25900
N241        N  0.79193095  0.13945759  0.02226385    -0.25500
N242        N  0.79926760  0.29032138  0.01461993     0.01500
C243        C  0.72159113  0.14803017  0.40638673     0.42900
C244        C  0.71892128  0.18186367  0.07949426    -0.06700
N245        N  0.86402822  0.20773605  0.02251357    -0.25500
H246        H  0.76914600  0.09700603  0.05524569     0.07100
N247        N  0.72661843  0.17900128  0.41911196    -0.46700
H248        H  0.70334585  0.19563346  0.08232577     0.07100
C249        C  0.86118821  0.28370602  0.09916288     0.42800
C250        C  0.69315827  0.20719484  0.47063737    -0.06200
Co251      Co  0.77384197  0.24270011  0.03980275     0.73800
N252        N  0.74277068  0.14444233  0.08397672    -0.46400
C253        C  0.87116138  0.29000082  0.40959722     0.43000
N254        N  0.81693367  0.32484908  0.02383475    -0.46400
Co255      Co  0.81426553  0.18932096  0.04530834     0.73900
C256        C  0.89834561  0.22332209  0.03313905    -0.06700
C257        C  0.75126744  0.14220497  0.41745694    -0.06300
N258        N  0.79984405  0.28848727  0.48260418    -0.25800
N259        N  0.77998671  0.10475271  0.47338993    -0.46600
H260        H  0.89112845  0.24780328  0.41344321     0.07100
C261        C  0.83415264  0.28795877  0.08303544    -0.06700
Cl262      Cl  0.79505258  0.21406826  0.00463409    -0.49700
C263        C  0.71363954  0.14802263  0.09230601     0.42800
H264        H  0.82049424  0.33210303  0.45085114     0.07000
N265        N  0.86143634  0.25358335  0.08876178    -0.46400
C266        C  0.34052800  0.80948294  0.99067816     0.42700
N267        N  0.28531335  0.78700098  0.00627754     0.01500
C268        C  0.13783292  0.74662219  0.42613098    -0.06300
H269        H  0.25050608  0.88278269  0.41870340     0.07000
C270        C  0.22647287  0.89705271  0.02488337    -0.06700
Co271      Co  0.23403768  0.76410089  0.46404469     0.74200
N272        N  0.23809323  0.83334343  0.44285605    -0.25900
Co273      Co  0.18982605  0.81411781  0.46788890     0.74100
C274        C  0.24324850  0.91936417  0.50687617     0.42800
N275        N  0.24354298  0.83312945  0.05922168     0.01200
N276        N  0.21378181  0.86250431  0.49326627     0.01300
N277        N  0.16867978  0.71561428  0.42828634    -0.46700
H278        H  0.32354812  0.80229695  0.44925717     0.07000
N279        N  0.25373650  0.81300210  0.44274902     0.01600
N280        N  0.14238987  0.79280204  0.49369034     0.01300
C281        C  0.08335047  0.76786327  0.00153301     0.42900
N282        N  0.26100424  0.81485719  0.05499268    -0.25300
C283        C  0.19765574  0.68034368  0.47645694    -0.06200
N284        N  0.31963105  0.80105362  0.01503674    -0.46400
N285        N  0.10808360  0.77669204  0.48384297    -0.46600
C286        C  0.19259509  0.66052380  0.00094409     0.42700
N287        N  0.18440870  0.74553727  0.44442404     0.01500
N288        N  0.19307441  0.74676281  0.05778958    -0.25300
N289        N  0.28418120  0.78381503  0.48401431    -0.25800
N290        N  0.17385700  0.76341107  0.06092573     0.01200
H291        H  0.19105372  0.69953180  0.07762608     0.07100
H292        H  0.10062190  0.77288859  0.05013800     0.07100
N293        N  0.16723755  0.76447401  0.44396621    -0.25900
N294        N  0.21149515  0.86256079  0.01464402    -0.25500
N295        N  0.21602592  0.71762270  0.01061903     0.01500
C296        C  0.28707497  0.85632541  0.41293644     0.42900
C297        C  0.29021329  0.82786605  0.07228139    -0.06700
N298        N  0.14170151  0.79304604  0.01627189    -0.25500
H299        H  0.23122646  0.90491568  0.04770855     0.07100
N300        N  0.28234725  0.82559467  0.42557529    -0.46700
H301        H  0.30758483  0.81596172  0.07493287     0.07100
C302        C  0.14904655  0.71662525  0.08971510     0.42800
C303        C  0.31778400  0.79890031  0.47238781    -0.06200
Co304      Co  0.23920360  0.76665879  0.03246861     0.73800
N305        N  0.25933556  0.85827657  0.08027854    -0.46400
C306        C  0.13895452  0.71382209  0.41620454     0.43000
N307        N  0.20483229  0.68523572  0.02279451    -0.46400
Co308      Co  0.19206006  0.81355896  0.03834520     0.73900
C309        C  0.10753528  0.77746215  0.02714101    -0.06700
C310        C  0.25735125  0.86194780  0.42430342    -0.06300
N311        N  0.21393958  0.71505330  0.48617592    -0.25800
N312        N  0.22998456  0.89681293  0.48330954    -0.46600
H313        H  0.11864501  0.75562819  0.42057698     0.07100
C314        C  0.17949301  0.71720590  0.07483296    -0.06700
Cl315      Cl  0.21242849  0.78983259  0.99756024    -0.49700
C316        C  0.28903548  0.85616909  0.08917149     0.42800
H317        H  0.19261187  0.67209526  0.45372861     0.07000
N318        N  0.14718500  0.74650747  0.08063243    -0.46400
C319        C  0.57525590  0.85832582  0.41140429     0.42700
N320        N  0.59635158  0.83164223  0.43890791     0.01500
C321        C  0.49150746  0.67980900  0.02673200    -0.06300
H322        H  0.48278385  0.79944588  0.05031049     0.07000
C323        C  0.61060575  0.86209178  0.07987429    -0.06700
Co324      Co  0.53374832  0.76935693  0.46945901     0.74200
N325        N  0.50748022  0.78304726  0.01722311    -0.25900
Co326      Co  0.53716665  0.76400751  0.03945425     0.74100
C327        C  0.57514410  0.85760417  0.08980201     0.42800
N328        N  0.65869390  0.86309892  0.01444088     0.01200
N329        N  0.56529356  0.81310430  0.06124611     0.01300
N330        N  0.48505299  0.69028636  0.48556792    -0.46700
H331        H  0.51616872  0.81955681  0.42645263     0.07000
N332        N  0.51174333  0.79512018  0.49361884     0.01600
N333        N  0.56709068  0.74566643  0.06116811     0.01300
C334        C  0.57821116  0.71286705  0.09063811     0.42900
N335        N  0.65950990  0.86217032  0.48173491    -0.25300
C336        C  0.53839967  0.71235154  0.43158290    -0.06200
N337        N  0.60645057  0.85807757  0.41883504    -0.46400
N338        N  0.55154013  0.71596201  0.07750340    -0.46600
C339        C  0.56674069  0.70795511  0.41756038     0.42700
N340        N  0.50740293  0.72368779  0.49526385     0.01500
N341        N  0.65630975  0.79065793  0.48302937    -0.25300
N342        N  0.56075739  0.81471794  0.44382163    -0.25800
N343        N  0.66049324  0.79358801  0.01379062     0.01200
H344        H  0.67406848  0.76763688  0.44924799     0.07100
H345        H  0.64116799  0.75335971  0.08683739     0.07100
N346        N  0.50981314  0.71466171  0.01705532    -0.25900
N347        N  0.60146473  0.83291358  0.06213881    -0.25500
N348        N  0.59194996  0.75921876  0.44153501     0.01500
C349        C  0.47323788  0.80581328  0.00119615     0.42900
C350        C  0.67642608  0.89631580  0.47040177    -0.06700
N351        N  0.60325992  0.76366539  0.06227847    -0.25500
H352        H  0.63831340  0.88287341  0.08567446     0.07100
N353        N  0.49210298  0.80918227  0.48351033    -0.46700
H354        H  0.67668476  0.90300850  0.44749956     0.07100
C355        C  0.69323183  0.76987498  0.00024219     0.42800
C356        C  0.54532352  0.82953456  0.42776606    -0.06200
Co357      Co  0.62722480  0.81144100  0.46056178     0.73800
N358        N  0.67714328  0.89709628  0.02515596    -0.46400
C359        C  0.47962101  0.65722214  0.00016113     0.43000
N360        N  0.59950747  0.73859147  0.42401248    -0.46400
Co361      Co  0.63216345  0.81385155  0.03878862     0.73900
C362        C  0.61325016  0.74499997  0.08075046    -0.06700
C363        C  0.48710898  0.79677391  0.02740552    -0.06300
N364        N  0.55635419  0.74426134  0.44581577    -0.25800
N365        N  0.54895035  0.82657743  0.07728862    -0.46600
H366        H  0.48716898  0.67186218  0.04948101     0.07100
C367        C  0.67336599  0.77354107  0.47215894    -0.06700
Cl368      Cl  0.58361620  0.78867411  0.00119600    -0.49700
C369        C  0.69078657  0.92096451  0.49565115     0.42800
H370        H  0.50887942  0.69556598  0.43010714     0.07000
N371        N  0.67975215  0.77874343  0.02385358    -0.46400
C372        C  0.19553569  0.52680793  0.99993879     0.42700
N373        N  0.22074473  0.49525034  0.01130137     0.01500
C374        C  0.25594059  0.38928240  0.42303151    -0.06300
H375        H  0.11757852  0.35499874  0.41500386     0.07000
C376        C  0.10957563  0.32810396  0.03387235    -0.06700
Co377      Co  0.23034638  0.46163117  0.46294428     0.74200
N378        N  0.16419704  0.39400534  0.44117173    -0.25900
Co379      Co  0.18732081  0.36712988  0.46515777     0.74100
C380        C  0.08338959  0.30561726  0.50519276     0.42800
N381        N  0.17905835  0.40898654  0.06502874     0.01200
N382        N  0.13977064  0.33846448  0.49110369     0.01300
N383        N  0.28150550  0.45112307  0.42455520    -0.46700
H384        H  0.18881017  0.50994644  0.45187500     0.07000
N385        N  0.18166544  0.43029129  0.44199999     0.01600
N386        N  0.21196304  0.34284784  0.48959956     0.01300
C387        C  0.23556953  0.31018923  0.00149442     0.42900
N388        N  0.19858254  0.44481476  0.06047686    -0.25300
C389        C  0.31227241  0.51625445  0.47340223    -0.06200
N390        N  0.20853981  0.51600163  0.02250059    -0.46400
N391        N  0.22825962  0.32540335  0.47873757    -0.46600
C392        C  0.34452994  0.52392125  0.99078374     0.42700
N393        N  0.25198995  0.43449109  0.44108226     0.01500
N394        N  0.26563431  0.44315917  0.05660900    -0.25300
N395        N  0.20803387  0.48801351  0.48519016    -0.25800
N396        N  0.24814461  0.40729218  0.06101102     0.01200
H397        H  0.31478575  0.48866556  0.07319734     0.07100
H398        H  0.23514343  0.32335172  0.05044965     0.07100
N399        N  0.23610140  0.39826659  0.44082019    -0.25900
N400        N  0.14319949  0.34541090  0.02179104    -0.25500
N401        N  0.28945724  0.49401482  0.00728320     0.01500
C402        C  0.13850814  0.41762232  0.41137560     0.42900
C403        C  0.18679060  0.46215442  0.07760331    -0.06700
N404        N  0.21201493  0.34367619  0.01838927    -0.25500
H405        H  0.10456727  0.32727615  0.05708971     0.07100
N406        N  0.16761691  0.44505126  0.42476458    -0.46700
H407        H  0.19900511  0.49174057  0.07913358     0.07100
C408        C  0.29832580  0.42942601  0.08624703     0.42800
C409        C  0.19183887  0.50600394  0.47480879    -0.06200
Co410      Co  0.24382648  0.46965698  0.03409131     0.73800
N411        N  0.15405153  0.40072135  0.08601639    -0.46400
C412        C  0.28644637  0.42487766  0.41253292     0.43000
N413        N  0.32415881  0.51363707  0.01549047    -0.46400
Co414      Co  0.19498952  0.37515430  0.04227585     0.73900
C415        C  0.22827449  0.32513268  0.02791165    -0.06700
C416        C  0.13598701  0.38305823  0.42194850    -0.06300
N417        N  0.27910473  0.49327895  0.48427281    -0.25800
N418        N  0.10552548  0.31836883  0.48141826    -0.46600
H419        H  0.24956582  0.36156885  0.41781520     0.07100
C420        C  0.29702703  0.45921980  0.07139009    -0.06700
Cl421      Cl  0.21469567  0.41797030  0.00046519    -0.49700
C422        C  0.15753505  0.43342152  0.09464267     0.42800
H423        H  0.31881725  0.52112793  0.45046675     0.07000
N424        N  0.26653598  0.39777966  0.07941149    -0.46400
C425        C  0.43564368  0.13855877  0.41773700     0.42700
N426        N  0.41345804  0.16717541  0.44198457     0.01500
C427        C  0.51360538  0.31755162  0.03397870    -0.06300
H428        H  0.51649536  0.19588988  0.06277296     0.07000
C429        C  0.38706950  0.13326474  0.08148256    -0.06700
Co430      Co  0.47465428  0.23503191  0.46898875     0.74200
N431        N  0.49619211  0.21346649  0.02695522    -0.25900
Co432      Co  0.46523442  0.23297835  0.04596253     0.74100
C433        C  0.42118430  0.13704009  0.09397383     0.42800
N434        N  0.34742080  0.13604184  0.01259125     0.01200
N435        N  0.43440886  0.18351217  0.06668510     0.01300
N436        N  0.51860168  0.31683177  0.48142784    -0.46700
H437        H  0.49479502  0.18293104  0.42975581     0.07000
N438        N  0.50075475  0.21514774  0.49472229     0.01600
N439        N  0.43365311  0.25126081  0.06481696     0.01300
C440        C  0.42007218  0.28323617  0.09298260     0.42900
N441        N  0.35027355  0.13703921  0.48429631    -0.25300
C442        C  0.46483355  0.28448167  0.42719019    -0.06200
N443        N  0.40398190  0.13814971  0.42474193    -0.46400
N444        N  0.44780334  0.28051410  0.08163979    -0.46600
C445        C  0.43553536  0.28422004  0.41068241     0.42700
N446        N  0.49888023  0.28337898  0.49241500     0.01500
N447        N  0.34990147  0.20647387  0.48317245    -0.25300
N448        N  0.44929221  0.18662638  0.44583540    -0.25800
N449        N  0.34603287  0.20530227  0.01190294     0.01200
H450        H  0.32950951  0.22718098  0.44909409     0.07100
H451        H  0.35761020  0.24313308  0.08602365     0.07100
N452        N  0.49570243  0.28267916  0.02426418    -0.25900
N453        N  0.39837020  0.16358534  0.06465025    -0.25500
N454        N  0.41270451  0.23726417  0.43945096     0.01500
C455        C  0.53138499  0.19036991  0.01514199     0.42900
C456        C  0.33163951  0.10263640  0.47366250    -0.06700
N457        N  0.39744810  0.23317104  0.06392025    -0.25500
H458        H  0.35883687  0.11176792  0.08448768     0.07100
N459        N  0.52270212  0.20332523  0.48564270    -0.46700
H460        H  0.32995749  0.09539758  0.45080308     0.07100
C461        C  0.31427056  0.22943241  0.99719856     0.42800
C462        C  0.46546065  0.17115732  0.43140361    -0.06200
Co463      Co  0.38050721  0.18651175  0.46150327     0.73800
N464        N  0.32884368  0.10143170  0.02195775    -0.46400
C465        C  0.52924636  0.34000071  0.00760582     0.43000
N466        N  0.40350242  0.25389572  0.41900999    -0.46400
Co467      Co  0.37103142  0.18386681  0.03873864     0.73900
C468        C  0.38590935  0.25134838  0.08154012    -0.06700
C469        C  0.51492731  0.19925972  0.03952007    -0.06300
N470        N  0.44845436  0.25460822  0.44375156    -0.25800
N471        N  0.44873853  0.16892191  0.08378796    -0.46600
H472        H  0.51557531  0.32590622  0.05659831     0.07100
C473        C  0.33146057  0.22211151  0.47206722    -0.06700
Cl474      Cl  0.42338267  0.21007347  0.00452122    -0.49700
C475        C  0.31648657  0.07902755  0.49938678     0.42800
H476        H  0.49419363  0.30275279  0.42551660     0.07000
N477        N  0.32487003  0.21821414  0.02109955    -0.46400
C478        C  0.29137506  0.26772261  0.97325698    -0.12100
C479        C  0.29191843  0.24790238  0.99786807     0.04900
C480        C  0.27242318  0.24762288  0.02317748    -0.07400
C481        C  0.25446535  0.26808240  0.02381474    -0.08100
C482        C  0.25472934  0.28863075  0.99949169    -0.02700
C483        C  0.27316244  0.28799702  0.97385678     0.04200
N484        N  0.27590882  0.30981325  0.94892431     0.66700
H485        H  0.30637230  0.26880381  0.95371132     0.15600
H486        H  0.23967607  0.26731633  0.04341956     0.15300
N487        N  0.26953362  0.22586039  0.04820120     0.74400
O488        O  0.31785282  0.35877850  0.46132611    -0.39100
O489        O  0.26414011  0.29463093  0.92434917    -0.39000
O490        O  0.26604139  0.22300373  0.56797590    -0.39700
O491        O  0.24574999  0.19196910  0.04837754    -0.39800
C492        C  0.41802185  0.62470921  0.48086733    -0.12100
C493        C  0.45132392  0.61801909  0.99693475     0.04900
C494        C  0.43600114  0.59394682  0.02097395    -0.07400
C495        C  0.40230709  0.56152020  0.01763692    -0.08100
C496        C  0.38384813  0.55221638  0.99065146    -0.02700
C497        C  0.38408059  0.59307185  0.47781656     0.04200
N498        N  0.36181366  0.59062044  0.45328375     0.66700
H499        H  0.42699863  0.64475444  0.46339693     0.15600
H500        H  0.38968007  0.54444945  0.03668826     0.15300
N501        N  0.45362883  0.60198806  0.04892768     0.74400
O502        O  0.33583379  0.59698253  0.45694268    -0.39100
O503        O  0.39617363  0.54708084  0.91979602    -0.39000
O504        O  0.43809817  0.60677900  0.07070375    -0.39700
O505        O  0.47955645  0.59567509  0.05311309    -0.39800
C506        C  0.28449236  0.97901656  0.97768175    -0.12100
C507        C  0.26276746  0.96032374  0.50537966     0.04900
C508        C  0.28530882  0.98329096  0.52830656    -0.07400
C509        C  0.30171171  0.02165763  0.52596769    -0.08100
C510        C  0.29711554  0.03818169  0.50086655    -0.02700
C511        C  0.30693920  0.01755435  0.97796595     0.04200
N512        N  0.33831403  0.03430210  0.95917572     0.66700
H513        H  0.29057824  0.96304043  0.96245102     0.15600
H514        H  0.31916188  0.03869850  0.54366809     0.15300
N515        N  0.29377217  0.96860846  0.55340025     0.74400
O516        O  0.28359667  0.03076952  0.42839611    -0.39100
O517        O  0.33394292  0.03279545  0.93176679    -0.39000
O518        O  0.32138870  0.96442992  0.55266351    -0.39700
O519        O  0.18756237  0.95788029  0.02961355    -0.39800
C520        C  0.19908712  0.57893352  0.02739795    -0.12100
C521        C  0.18700242  0.55659752  0.00234053     0.04900
C522        C  0.16521074  0.56359183  0.47727121    -0.07400
C523        C  0.16795855  0.59802810  0.47870137    -0.08100
C524        C  0.18648933  0.62307279  0.00379717    -0.02700
C525        C  0.19908873  0.61206114  0.02836117     0.04200
N526        N  0.21475958  0.63526643  0.05342499     0.66700
H527        H  0.21094775  0.57204167  0.04567262     0.15600
H528        H  0.16237009  0.60886080  0.45909167     0.15300
N529        N  0.15454970  0.54414133  0.45007112     0.74400
O530        O  0.19620556  0.62802341  0.07666181    -0.39100
O531        O  0.22843137  0.64192669  0.56355489    -0.39000
O532        O  0.12263114  0.51527413  0.95622167    -0.39700
O533        O  0.17508740  0.55776759  0.42800816    -0.39800
C534        C  0.39504336  0.82234542  0.01938283    -0.12100
C535        C  0.37900046  0.81787329  0.99164359     0.04900
C536        C  0.40329900  0.82620727  0.47359020    -0.07400
C537        C  0.43789868  0.82998247  0.47710513    -0.08100
C538        C  0.44427259  0.81567930  0.99867104    -0.02700
C539        C  0.42729727  0.82131623  0.02318089     0.04200
N540        N  0.44127911  0.82480312  0.05222129     0.66700
H541        H  0.38153713  0.82483348  0.03870117     0.15600
H542        H  0.45291228  0.83065386  0.45763678     0.15300
N543        N  0.38998196  0.82443205  0.44451038     0.74400
O544        O  0.46524877  0.85619705  0.06141768    -0.39100
O545        O  0.42369036  0.79920340  0.07042377    -0.39000
O546        O  0.39872619  0.85402549  0.43111893    -0.39700
O547        O  0.37799409  0.79493826  0.43007931    -0.39800
C548        C  0.72633100  0.02025266  0.51948271    -0.12100
C549        C  0.74701620  0.04022697  0.49503484     0.04900
C550        C  0.73304330  0.02075285  0.97818432    -0.07400
C551        C  0.71488066  0.98211871  0.97783547    -0.08100
C552        C  0.70932836  0.96189324  0.49567402    -0.02700
C553        C  0.70761704  0.98166894  0.52000382     0.04200
N554        N  0.68615999  0.96312357  0.54519662     0.66700
H555        H  0.72420908  0.03452496  0.53842682     0.15600
H556        H  0.70510731  0.96827946  0.95702539     0.15300
N557        N  0.73778326  0.03960951  0.95109786     0.74400
O558        O  0.70208564  0.96147080  0.56807230    -0.39100
O559        O  0.69717712  0.96016211  0.07619052    -0.39000
O560        O  0.80070516  0.04321286  0.44191484    -0.39700
O561        O  0.71184161  0.04328080  0.94121505    -0.39800
C562        C  0.98249832  0.25969016  0.03375846    -0.12100
C563        C  0.96354124  0.25290543  0.00707969     0.04900
C564        C  0.98618038  0.26938565  0.47662108    -0.07400
C565        C  0.02468330  0.28657028  0.47833898    -0.08100
C566        C  0.04227144  0.29178002  0.00923782    -0.02700
C567        C  0.02102263  0.27870356  0.03512622     0.04200
N568        N  0.03762974  0.28437743  0.06329848     0.66700
H569        H  0.96747504  0.25013640  0.05408781     0.15600
H570        H  0.04086517  0.30223103  0.45966857     0.15300
N571        N  0.97004217  0.27394916  0.45058117     0.74400
O572        O  0.03757442  0.30821530  0.08002082    -0.39100
O573        O  0.04303031  0.25982048  0.07403961    -0.39000
O574        O  0.96667357  0.30200392  0.44786570    -0.39700
O575        O  0.96632186  0.25448353  0.42838593    -0.39800
C576        C  0.62056809  0.19633503  0.03557975    -0.12100
C577        C  0.63080799  0.18879900  0.00838538     0.04900
C578        C  0.60468734  0.17435891  0.98564802    -0.07400
C579        C  0.57072982  0.17202964  0.98942725    -0.08100
C580        C  0.56205114  0.18314947  0.01570811    -0.02700
C581        C  0.58627626  0.19281428  0.03969709     0.04200
N582        N  0.57783345  0.20125721  0.06789258     0.66700
H583        H  0.63990812  0.20697060  0.05348029     0.15600
H584        H  0.55424414  0.16780225  0.46456193     0.15300
N585        N  0.61208878  0.16262767  0.95847049     0.74400
O586        O  0.56157818  0.17565077  0.08632826    -0.39100
O587        O  0.59903751  0.24405336  0.56447846    -0.39000
O588        O  0.60470024  0.12968028  0.95585767    -0.39700
O589        O  0.61822978  0.18265765  0.42825665    -0.39800
C590        C  0.98554716  0.70778128  0.48274482    -0.12100
C591        C  0.96405659  0.71208795  0.00373123     0.04900
C592        C  0.98566160  0.72898391  0.02900079    -0.07400
C593        C  0.02406624  0.74675872  0.02754909    -0.08100
C594        C  0.04235636  0.74918444  0.00128580    -0.02700
C595        C  0.02413284  0.72546521  0.48206839     0.04200
N596        N  0.04148173  0.72208244  0.45635280     0.66700
H597        H  0.97016674  0.69279022  0.46352908     0.15600
H598        H  0.03960328  0.75933135  0.04728892     0.15300
N599        N  0.96954560  0.72969445  0.05628971     0.74400
O600        O  0.04852165  0.69628346  0.45464536    -0.39100
O601        O  0.04262660  0.73955610  0.43351539    -0.39000
O602        O  0.97110076  0.71139495  0.07761423    -0.39700
O603        O  0.96209813  0.75481678  0.06098182    -0.39800
C604        C  0.75496415  0.73033854  0.98090205    -0.12100
C605        C  0.74532827  0.70326219  0.00258400     0.04900
C606        C  0.71825866  0.69826739  0.02329360    -0.07400
C607        C  0.70263826  0.72099277  0.02266270    -0.08100
C608        C  0.71247198  0.74823184  0.00114762    -0.02700
C609        C  0.73905071  0.75282641  0.98009578     0.04200
N610        N  0.72694247  0.75453135  0.44641605     0.66700
H611        H  0.76025398  0.71781453  0.45834445     0.15600
H612        H  0.68157827  0.71630677  0.03849041     0.15300
N613        N  0.70452650  0.66879835  0.04400744     0.74400
O614        O  0.77630973  0.81393336  0.96612959    -0.39100
O615        O  0.70710659  0.73322047  0.42624150    -0.39000
O616        O  0.70707157  0.67604223  0.07099203    -0.39700
O617        O  0.70096627  0.65681702  0.55863242    -0.39800
C618        C  0.83961191  0.43817603  0.48081337    -0.12100
C619        C  0.83212365  0.44865568  0.00144591     0.04900
C620        C  0.83312695  0.43157746  0.02781261    -0.07400
C621        C  0.83684269  0.40051007  0.02684653    -0.08100
C622        C  0.83914638  0.38571257  0.00005651    -0.02700
C623        C  0.84543264  0.40829359  0.47983907     0.04200
N624        N  0.86356002  0.40418213  0.45493602     0.66700
H625        H  0.84823162  0.45697217  0.46239663     0.15600
H626        H  0.83475663  0.38624845  0.04717315     0.15300
N627        N  0.82880542  0.44399933  0.05578002     0.74400
O628        O  0.84848039  0.39850550  0.43009279    -0.39100
O629        O  0.89753208  0.41559806  0.45645067    -0.39000
O630        O  0.79687045  0.43151392  0.06595722    -0.39700
O631        O  0.85563080  0.45693545  0.07324145    -0.39800
C632        C  0.57442775  0.39844077  0.03157488    -0.12100
C633        C  0.55840913  0.37892631  0.00573087     0.04900
C634        C  0.57377315  0.39556454  0.97850171    -0.07400
C635        C  0.60753317  0.42821035  0.97783092    -0.08100
C636        C  0.62613204  0.44501261  0.00383571    -0.02700
C637        C  0.60791367  0.43151666  0.03079986     0.04200
N638        N  0.62299559  0.45081868  0.05757971     0.66700
H639        H  0.56203997  0.38735292  0.05263968     0.15600
H640        H  0.61988601  0.43904515  0.95672942     0.15300
N641        N  0.55704369  0.38002988  0.44793290     0.74400
O642        O  0.61535960  0.47495678  0.06547190    -0.39100
O643        O  0.63574082  0.43787237  0.07611013    -0.39000
O644        O  0.53649465  0.38970589  0.43546194    -0.39700
O645        O  0.56902215  0.36208843  0.93653222    -0.39800
C646        C  0.42298599  0.33602943  0.16157082    -0.12100
C647        C  0.45860877  0.36714390  0.15894014     0.04900
C648        C  0.47792517  0.37189537  0.13280288    -0.07400
C649        C  0.46269517  0.34542801  0.11077007    -0.08100
C650        C  0.42843257  0.31315756  0.11410504    -0.02700
C651        C  0.40791308  0.30895578  0.13952004     0.04200
N652        N  0.37301534  0.27667247  0.14413944     0.66700
H653        H  0.40713606  0.33203684  0.18128812     0.15600
H654        H  0.47865803  0.34975440  0.09103381     0.15300
N655        N  0.51234844  0.40407992  0.12736236     0.74400
O656        O  0.37131440  0.24964395  0.15765401    -0.39100
O657        O  0.34413335  0.27819169  0.14043510    -0.39000
O658        O  0.54088666  0.40147993  0.12824933    -0.39700
O659        O  0.51254381  0.42930175  0.11219422    -0.39800
C660        C  0.43356686  0.35041120  0.35514345    -0.12100
C661        C  0.46751364  0.36278949  0.34087886     0.04900
C662        C  0.48826042  0.34604539  0.34778871    -0.07400
C663        C  0.47561414  0.31868694  0.36919081    -0.08100
C664        C  0.44274651  0.30768189  0.38457199    -0.02700
C665        C  0.42110536  0.32310958  0.37687474     0.04200
N666        N  0.38751350  0.31281283  0.39177863     0.66700
H667        H  0.41690592  0.36260987  0.34992960     0.15600
H668        H  0.49219902  0.30631971  0.37405208     0.15300
N669        N  0.52186869  0.35579658  0.33312807     0.74400
O670        O  0.38781604  0.33111628  0.41378100    -0.39100
O671        O  0.35735299  0.29111380  0.37948661    -0.39000
O672        O  0.55193583  0.37435404  0.34657934    -0.42400
O673        O  0.52103105  0.33921775  0.30985147    -0.39800
C674        C  0.66408040  0.52870057  0.12158118    -0.12100
C675        C  0.69335514  0.56485158  0.11723035     0.04900
C676        C  0.69577158  0.59325481  0.13523885    -0.07400
C677        C  0.66913498  0.58485665  0.15706144    -0.08100
C678        C  0.64050534  0.54833989  0.16149491    -0.02700
C679        C  0.63823242  0.52047641  0.14337474     0.04200
N680        N  0.60760511  0.48400891  0.14472677     0.66700
H681        H  0.66032270  0.50658548  0.10819193     0.15600
H682        H  0.67161151  0.60663685  0.17101818     0.15300
N683        N  0.72560832  0.63025156  0.13269403     0.74400
O684        O  0.57795347  0.47764854  0.13294000    -0.39100
O685        O  0.61211350  0.45756338  0.15198986    -0.39000
O686        O  0.71906128  0.65569883  0.12669475    -0.39700
O687        O  0.75656663  0.63843903  0.14309613    -0.39800
C688        C  0.66765623  0.53431590  0.38459499    -0.12100
C689        C  0.69463505  0.57171983  0.38879922     0.04900
C690        C  0.69449798  0.59821279  0.36998398    -0.07400
C691        C  0.66828959  0.58689582  0.34741849    -0.08100
C692        C  0.64188911  0.54936690  0.34298733    -0.02700
C693        C  0.64180035  0.52303457  0.36200569     0.04200
N694        N  0.61522174  0.48473678  0.35918287     0.66700
H695        H  0.66656118  0.51315109  0.39883505     0.15600
H696        H  0.66914501  0.60779478  0.33304010     0.15300
N697        N  0.72083418  0.63650085  0.37302892     0.74400
O698        O  0.62366359  0.46384546  0.34569828    -0.39100
O699        O  0.58701574  0.47076231  0.37521355    -0.39000
O700        O  0.74881305  0.65094766  0.35674706    -0.39700
O701        O  0.71239853  0.65696562  0.38717633    -0.39800
C702        C  0.53164856  0.65498011  0.11398521    -0.12100
C703        C  0.56846953  0.68417417  0.11336196     0.04900
C704        C  0.59237650  0.68646536  0.13581483    -0.07400
C705        C  0.57886376  0.66064721  0.15866312    -0.08100
C706        C  0.54169251  0.63228681  0.15968519    -0.02700
C707        C  0.51813680  0.62937101  0.13678374     0.04200
N708        N  0.48073817  0.60017774  0.13579556     0.66700
H709        H  0.51271781  0.65211986  0.09673906     0.15600
H710        H  0.59762313  0.66322520  0.17597850     0.15300
N711        N  0.62997133  0.71514958  0.13633359     0.74400
O712        O  0.45538280  0.60706604  0.14089569    -0.39100
O713        O  0.47297462  0.56986242  0.12414136    -0.39000
O714        O  0.63974942  0.74265025  0.15283352    -0.39700
O715        O  0.65406879  0.70944147  0.12525356    -0.39800
C716        C  0.58370717  0.69069232  0.37050230    -0.12100
C717        C  0.55964321  0.68047079  0.39433798     0.04900
C718        C  0.52644577  0.64595038  0.39354147    -0.07400
C719        C  0.51712280  0.62380276  0.36852454    -0.08100
C720        C  0.54065436  0.63455874  0.34443050    -0.02700
C721        C  0.57450146  0.66817165  0.34562897     0.04200
N722        N  0.59857554  0.68121814  0.32095275     0.66700
H723        H  0.60890565  0.71718282  0.37046513     0.15600
H724        H  0.49172408  0.59747756  0.36830088     0.15300
N725        N  0.50234254  0.63219857  0.41822033     0.74400
O726        O  0.59279308  0.69830436  0.30083963    -0.39100
O727        O  0.62929512  0.68291406  0.32235265    -0.39000
O728        O  0.46977087  0.62571544  0.41575036    -0.39700
O729        O  0.51047322  0.61828753  0.43937771    -0.39800
C730        C  0.31216273  0.40910912  0.13360506    -0.12100
C731        C  0.32377148  0.43501811  0.11085368     0.04900
C732        C  0.35779083  0.46850336  0.11392681    -0.07400
C733        C  0.37749731  0.47653269  0.14010460    -0.08100
C734        C  0.36543894  0.45116498  0.16298211    -0.02700
C735        C  0.33281981  0.41674424  0.15946210     0.04200
N736        N  0.31920288  0.39006371  0.18248907     0.66700
H737        H  0.28625038  0.38343921  0.13186060     0.15600
H738        H  0.40334961  0.50226923  0.14206114     0.15300
N739        N  0.37374545  0.49426535  0.09041427     0.74400
O740        O  0.30010481  0.39259567  0.20260785    -0.39100
O741        O  0.31972397  0.36046203  0.17951227    -0.39000
O742        O  0.38154110  0.52720970  0.09416928    -0.39700
O743        O  0.38777547  0.48658518  0.06914116    -0.39800
C744        C  0.31007179  0.40561967  0.37012970    -0.12100
C745        C  0.31447225  0.43322294  0.38964789     0.04900
C746        C  0.34424593  0.46959699  0.38543351    -0.07400
C747        C  0.36831310  0.47761923  0.36200277    -0.08100
C748        C  0.36378624  0.45021558  0.34238674    -0.02700
C749        C  0.33406434  0.41377960  0.34642805     0.04200
N750        N  0.32612982  0.38522373  0.32571460     0.66700
H751        H  0.28702252  0.37784922  0.37246624     0.15600
H752        H  0.39102592  0.50556497  0.35937001     0.15300
N753        N  0.35048714  0.49911616  0.40450056     0.74400
O754        O  0.33083691  0.35888354  0.33294409    -0.39100
O755        O  0.30632240  0.38160841  0.30378214    -0.39000
O756        O  0.37340377  0.50796485  0.42511213    -0.39700
O757        O  0.34064575  0.52155262  0.39634426    -0.39800
C758        C  0.92385681  0.58367014  0.15768336    -0.12100
C759        C  0.92097313  0.54868272  0.15741139     0.04900
C760        C  0.90532575  0.52590782  0.13288178    -0.07400
C761        C  0.89101708  0.53716113  0.11010943    -0.08100
C762        C  0.89031057  0.57028959  0.11163345    -0.02700
C763        C  0.90842444  0.59447818  0.13508851     0.04200
N764        N  0.91037061  0.62934332  0.13690800     0.66700
H765        H  0.93676725  0.60199748  0.17594128     0.15600
H766        H  0.87974512  0.51971629  0.09174044     0.15300
N767        N  0.90398727  0.49132967  0.13035927     0.74400
O768        O  0.88633149  0.63219769  0.15119647    -0.39100
O769        O  0.93946189  0.65809265  0.12926048    -0.39000
O770        O  0.87422448  0.46189313  0.13541823    -0.39700
O771        O  0.92948773  0.48983996  0.11716562    -0.39800
C772        C  0.87752790  0.52377638  0.34892233    -0.12100
C773        C  0.91513590  0.54581131  0.34349323     0.04900
C774        C  0.93528826  0.57925137  0.35942462    -0.07400
C775        C  0.91752158  0.58964483  0.38025917    -0.08100
C776        C  0.87992971  0.56709214  0.38597242    -0.02700
C777        C  0.85985531  0.53404672  0.36959323     0.04200
N778        N  0.82102096  0.51089506  0.37291771     0.66700
H779        H  0.86131047  0.49864502  0.33655643     0.15600
H780        H  0.93350781  0.61466297  0.39283045     0.15300
N781        N  0.97412668  0.60210033  0.35588492     0.74400
O782        O  0.79971508  0.51746049  0.35802188    -0.39100
O783        O  0.80841035  0.48013938  0.38556661    -0.39000
O784        O  0.98697588  0.63339591  0.34411312    -0.39700
O785        O  0.99534739  0.59460052  0.36993894    -0.39800
C786        C  0.91967262  0.33121167  0.12041212    -0.12100
C787        C  0.88203085  0.30733426  0.12385563     0.04900
C788        C  0.86340085  0.31305980  0.14706569    -0.07400
C789        C  0.88207390  0.34397840  0.16513410    -0.08100
C790        C  0.91950389  0.36895009  0.16093576    -0.02700
C791        C  0.93859277  0.36182269  0.13877929     0.04200
N792        N  0.97683391  0.38619121  0.13365917     0.66700
H793        H  0.93399840  0.32747472  0.10223313     0.15600
H794        H  0.86741350  0.34801816  0.18287926     0.15300
N795        N  0.82559517  0.28723806  0.15281148     0.74400
O796        O  0.99886045  0.37462021  0.13795233    -0.39100
O797        O  0.98681862  0.41443056  0.11799438    -0.39000
O798        O  0.81746470  0.26040398  0.16970023    -0.39700
O799        O  0.80143477  0.29542399  0.14644007    -0.39800
C800        C  0.91786160  0.33556444  0.33814210    -0.12100
C801        C  0.92039146  0.37005965  0.34106368     0.04900
C802        C  0.90944092  0.37898251  0.36730787    -0.07400
C803        C  0.89523246  0.35295717  0.38993137    -0.08100
C804        C  0.89168086  0.31788785  0.38679901    -0.02700
C805        C  0.90312225  0.30926891  0.36054375     0.04200
N806        N  0.89685769  0.27305724  0.35515321     0.66700
H807        H  0.92619330  0.32849102  0.31787516     0.15600
H808        H  0.88653388  0.36003107  0.41000674     0.15300
N809        N  0.91394108  0.41475510  0.37163241     0.74400
O810        O  0.86540741  0.24803554  0.34704910    -0.39100
O811        O  0.92385532  0.26807671  0.35268089    -0.39000
O812        O  0.88711809  0.41972604  0.36765735    -0.39700
O813        O  0.94555666  0.44211338  0.37608835    -0.39800
C814        C  0.16418495  0.47478007  0.13574986    -0.12100
C815        C  0.14187881  0.44140006  0.12082044     0.04900
C816        C  0.10512694  0.41938299  0.12958102    -0.07400
C817        C  0.09101963  0.43193475  0.15172146    -0.08100
C818        C  0.11272896  0.46655025  0.16520048    -0.02700
C819        C  0.15008893  0.48749883  0.15756667     0.04200
N820        N  0.17455835  0.52118110  0.17215320     0.66700
H821        H  0.19300847  0.49157229  0.13036513     0.15600
H822        H  0.06259179  0.41492042  0.15782715     0.15300
N823        N  0.08118319  0.38535385  0.11525711     0.74400
O824        O  0.18991889  0.52018271  0.19560078    -0.39100
O825        O  0.18693687  0.55129891  0.15855736    -0.39000
O826        O  0.07006669  0.35554486  0.12904550    -0.39700
O827        O  0.06460286  0.38557249  0.09228953    -0.39800
C828        C  0.14923995  0.45337309  0.36604948    -0.12100
C829        C  0.12369198  0.42607815  0.38507447     0.04900
C830        C  0.08626674  0.41460275  0.38202519    -0.07400
C831        C  0.07512991  0.43064854  0.36032432    -0.08100
C832        C  0.10094760  0.45903261  0.34215802    -0.02700
C833        C  0.13830937  0.47010820  0.34497464     0.04200
N834        N  0.16541821  0.49769817  0.32631193     0.66700
H835        H  0.17827919  0.46285935  0.36833707     0.15600
H836        H  0.04618862  0.42168356  0.35826053     0.15300
N837        N  0.05977767  0.38916176  0.40224121     0.74400
O838        O  0.18377767  0.53052419  0.33529307    -0.39100
O839        O  0.17622093  0.48806413  0.30405296    -0.39000
O840        O  0.05199604  0.40119451  0.42479145    -0.39700
O841        O  0.03938926  0.35593162  0.39483811    -0.39800
C842        C  0.10281942  0.67599402  0.16236988    -0.12100
C843        C  0.10150806  0.64190399  0.16153108     0.04900
C844        C  0.11222897  0.63125122  0.13609060    -0.07400
C845        C  0.12561581  0.65539855  0.11233109    -0.08100
C846        C  0.12855819  0.69034573  0.11344698    -0.02700
C847        C  0.11630748  0.70031287  0.13858405     0.04200
N848        N  0.11905228  0.73551772  0.14095673     0.66700
H849        H  0.09388078  0.68405036  0.18181880     0.15600
H850        H  0.13396078  0.64674998  0.09288711     0.15300
N851        N  0.10792547  0.59534536  0.13359955     0.74400
O852        O  0.09141986  0.73852617  0.13506015    -0.39100
O853        O  0.14569412  0.76106319  0.15474007    -0.39000
O854        O  0.07629852  0.56752612  0.13036925    -0.39700
O855        O  0.13520003  0.59104349  0.13732170    -0.39800
C856        C  0.09952447  0.67217174  0.34260902    -0.12100
C857        C  0.09642152  0.63747772  0.34579319     0.04900
C858        C  0.10364520  0.62685792  0.37290618    -0.07400
C859        C  0.11493100  0.65155270  0.39632357    -0.08100
C860        C  0.11923895  0.68688251  0.39297964    -0.02700
C861        C  0.11128024  0.69712125  0.36585570     0.04200
N862        N  0.11806308  0.73357497  0.36073508     0.66700
H863        H  0.09361919  0.68027583  0.32168735     0.15600
H864        H  0.12124709  0.64345813  0.41708550     0.15300
N865        N  0.09826827  0.59073668  0.37718066     0.74400
O866        O  0.14944946  0.75816589  0.35218171    -0.39100
O867        O  0.09127857  0.73891501  0.35831486    -0.39000
O868        O  0.12455314  0.58495713  0.37314637    -0.39700
O869        O  0.06639234  0.56391040  0.38176649    -0.39800
C870        C  0.33381684  0.91041815  0.11755839    -0.12100
C871        C  0.31133975  0.87221387  0.11567064     0.04900
C872        C  0.31650905  0.84944374  0.13566798    -0.07400
C873        C  0.34527874  0.86505542  0.15593141    -0.08100
C874        C  0.36843259  0.90322750  0.15735800    -0.02700
C875        C  0.36223237  0.92611769  0.13824880     0.04200
N876        N  0.38572031  0.96524886  0.13848454     0.66700
H877        H  0.33071326  0.92802140  0.10184596     0.15600
H878        H  0.34870185  0.84730760  0.17127300     0.15300
N879        N  0.29207506  0.81041501  0.13617709     0.74400
O880        O  0.41619360  0.97941552  0.12539102    -0.39100
O881        O  0.37255960  0.98534896  0.14532374    -0.39000
O882        O  0.30402839  0.78910727  0.12988829    -0.39700
O883        O  0.26148600  0.79755724  0.14892358    -0.39800
C884        C  0.35170271  0.92086359  0.35417692    -0.12100
C885        C  0.36651221  0.89960256  0.34326900     0.04900
C886        C  0.35471680  0.86469358  0.35547861    -0.07400
C887        C  0.32902822  0.85199327  0.37793974    -0.08100
C888        C  0.31389253  0.87290703  0.38879080    -0.02700
C889        C  0.32551588  0.90779592  0.37667418     0.04200
N890        N  0.31188122  0.93062295  0.38720733     0.66700
H891        H  0.36051346  0.94798009  0.34526780     0.15600
H892        H  0.32048151  0.82478441  0.38650964     0.15300
N893        N  0.36710080  0.84084762  0.34485134     0.74400
O894        O  0.32908643  0.95366360  0.40725380    -0.39100
O895        O  0.28827866  0.93363294  0.37231983    -0.39000
O896        O  0.38734464  0.83410117  0.36097436    -0.39700
O897        O  0.35028412  0.81949444  0.32376338    -0.39800
C898        C  0.52944531  0.85845281  0.12347994    -0.12100
C899        C  0.56564624  0.87674847  0.11247991     0.04900
C900        C  0.59050090  0.91206133  0.12327225    -0.07400
C901        C  0.57958882  0.92750490  0.14538699    -0.08100
C902        C  0.54389288  0.90862919  0.15717300    -0.02700
C903        C  0.51837918  0.87400861  0.14537821     0.04200
N904        N  0.48112028  0.85417849  0.15516216     0.66700
H905        H  0.50927847  0.83152244  0.11523569     0.15600
H906        H  0.59957728  0.95468386  0.15312229     0.15300
N907        N  0.62642502  0.93352383  0.11138500     0.74400
O908        O  0.45711013  0.85812207  0.14176118    -0.39100
O909        O  0.47110047  0.82737119  0.17248344    -0.39000
O910        O  0.63142368  0.95602680  0.09111960    -0.39700
O911        O  0.65353432  0.93803556  0.12642379    -0.39800
C912        C  0.57881560  0.90425507  0.33884949    -0.12100
C913        C  0.54736577  0.90754517  0.34139415     0.04900
C914        C  0.52783839  0.89820482  0.36775748    -0.07400
C915        C  0.53909778  0.88448296  0.39087289    -0.08100
C916        C  0.56944856  0.87920318  0.38803808    -0.02700
C917        C  0.58970389  0.88965530  0.36180505     0.04200
N918        N  0.61948720  0.88315207  0.35728815     0.66700
H919        H  0.59425421  0.91190499  0.31857275     0.15600
H920        H  0.52354763  0.87739210  0.41107393     0.15300
N921        N  0.49709847  0.90339958  0.37155772     0.74400
O922        O  0.61293794  0.85210601  0.34804148    -0.39100
O923        O  0.65197528  0.91003667  0.35678504    -0.39000
O924        O  0.46496936  0.87656996  0.36809818    -0.39700
O925        O  0.50211830  0.93542476  0.37502647    -0.39800
C926        C  0.62733368  0.11143445  0.13848973    -0.12100
C927        C  0.63514128  0.09487498  0.16162056     0.04900
C928        C  0.66729624  0.09215384  0.16039478    -0.07400
C929        C  0.69180980  0.10776252  0.13680894    -0.08100
C930        C  0.68454877  0.12559565  0.11404294    -0.02700
C931        C  0.65097596  0.12585349  0.11453890     0.04200
N932        N  0.63975456  0.13994396  0.09068299     0.66700
H933        H  0.60202134  0.11221995  0.13852076     0.15600
H934        H  0.71726975  0.10728251  0.13697329     0.15300
N935        N  0.67646623  0.07537887  0.18361565     0.74400
O936        O  0.63003892  0.12231399  0.06687155    -0.39100
O937        O  0.63123897  0.16424804  0.09562719    -0.39000
O938        O  0.67206916  0.04360277  0.18010019    -0.39700
O939        O  0.69475534  0.09458909  0.20524195    -0.39800
C940        C  0.65119020  0.07690901  0.35353089    -0.12100
C941        C  0.63695748  0.09748628  0.34034033     0.04900
C942        C  0.65190839  0.13472207  0.34842070    -0.07400
C943        C  0.67956452  0.15009922  0.36960643    -0.08100
C944        C  0.69348997  0.12951097  0.38311858    -0.02700
C945        C  0.67915087  0.09251512  0.37473375     0.04200
N946        N  0.69138731  0.06993617  0.38825728     0.66700
H947        H  0.64016706  0.04822705  0.34770081     0.15600
H948        H  0.69050838  0.17882929  0.37523706     0.15300
N949        N  0.64064877  0.15799402  0.33468854     0.74400
O950        O  0.67597772  0.05262177  0.41139781    -0.39100
O951        O  0.71157185  0.06125656  0.37405691    -0.39000
O952        O  0.62129977  0.16779654  0.34883920    -0.39700
O953        O  0.65667480  0.17515025  0.31165002    -0.39800
C954        C  0.41309969  0.07344162  0.15650541    -0.12100
C955        C  0.45030802  0.08388306  0.16042727     0.04900
C956        C  0.47658153  0.10907907  0.14084305    -0.07400
C957        C  0.46568127  0.12427380  0.11861114    -0.08100
C958        C  0.42873097  0.11509433  0.11528925    -0.02700
C959        C  0.40208430  0.08846709  0.13400036     0.04200
N960        N  0.36402515  0.07677897  0.13097229     0.66700
H961        H  0.39228717  0.05396661  0.17124565     0.15600
H962        H  0.48669839  0.14398626  0.10408852     0.15300
N963        N  0.51437024  0.11921281  0.14289682     0.74400
O964        O  0.34379361  0.04882171  0.11553616    -0.39100
O965        O  0.34940258  0.08876900  0.14853735    -0.39000
O966        O  0.52612241  0.10217232  0.12780076    -0.39700
O967        O  0.53696397  0.14905308  0.15525177    -0.39800
C968        C  0.41202539  0.09617791  0.37462637    -0.12100
C969        C  0.44016280  0.11563202  0.39505161     0.04900
C970        C  0.47376841  0.11587366  0.39150900    -0.07400
C971        C  0.47987408  0.10066498  0.36639547    -0.08100
C972        C  0.45241534  0.08275270  0.34535972    -0.02700
C973        C  0.41759115  0.07927498  0.35020406     0.04200
N974        N  0.38799957  0.06020968  0.32998264     0.66700
H975        H  0.38590354  0.09503856  0.37703785     0.15600
H976        H  0.50598561  0.10178101  0.36383917     0.15300
N977        N  0.50145323  0.12966614  0.41372275     0.74400
O978        O  0.36158387  0.02882776  0.33674849    -0.39100
O979        O  0.38406481  0.07785654  0.30929539    -0.39000
O980        O  0.49666254  0.11042711  0.43631153    -0.39700
O981        O  0.53337397  0.15551676  0.40765519    -0.39800
C982        C  0.47006650  0.07764100  0.81764077     0.42700
N983        N  0.49949375  0.06773109  0.78380745     0.01500
C984        C  0.42643592  0.91096352  0.69685261    -0.06300
H985        H  0.42354251  0.88283120  0.80762016     0.07000
C986        C  0.57140668  0.96643444  0.80535277    -0.06700
Co987      Co  0.44934411  0.99867060  0.75144405     0.74200
N988        N  0.44208633  0.93296080  0.78274056    -0.25900
Co989      Co  0.48077052  0.93680643  0.75119311     0.74100
C990        C  0.54572827  0.93265081  0.82000960     0.42800
N991        N  0.58516446  0.05004081  0.78519502     0.01200
N992        N  0.51808881  0.94146128  0.78411007     0.01300
N993        N  0.40845154  0.95326720  0.69925028    -0.46700
H994        H  0.41630597  0.02426727  0.80710834     0.07000
N995        N  0.43159750  0.95776165  0.78275809     0.01600
N996        N  0.52026531  0.94323382  0.71917459     0.01300
C997        C  0.55034987  0.93696905  0.68373618     0.42900
N998        N  0.57379593  0.07411000  0.78564593    -0.25300
C999        C  0.44740212  0.04102001  0.69837220    -0.06200
N1000       N  0.50345639  0.09144304  0.80476167    -0.46400
N1001       N  0.51680964  0.92135466  0.69682970    -0.46600
C1002       C  0.47223765  0.07443406  0.68293696     0.42700
N1003       N  0.43308713  0.95893897  0.71950968     0.01500
N1004       N  0.57696860  0.07592777  0.72081025    -0.25300
N1005       N  0.46577701  0.03917415  0.78290108    -0.25800
N1006       N  0.58913705  0.05251742  0.72214152     0.01200
H1007       H  0.59108710  0.12234194  0.69213834     0.07100
H1008       H  0.60361249  0.98945069  0.69643834     0.07100
N1009       N  0.44425318  0.93472493  0.71884731    -0.25900
N1010       N  0.55191781  0.96985449  0.78380742    -0.25500
N1011       N  0.50105290  0.06744781  0.71899293     0.01500
C1012       C  0.39743155  0.91926034  0.81569118     0.42900
C1013       C  0.58833466  0.09549861  0.80955660    -0.06700
N1014       N  0.55395680  0.97177595  0.72097318    -0.25500
H1015       H  0.60011893  0.98526837  0.80999644     0.07100
N1016       N  0.40530622  0.95060693  0.80180893    -0.46700
H1017       H  0.58427532  0.11799295  0.81581852     0.07100
C1018       C  0.62018087  0.08844073  0.68692268     0.42800
C1019       C  0.44522920  0.04304011  0.80330092    -0.06200
Co1020     Co  0.53843293  0.07266347  0.75222194     0.73800
N1021       N  0.60694053  0.05367135  0.80719119    -0.46400
C1022       C  0.40295785  0.92385680  0.68372826     0.43000
N1023       N  0.50526868  0.08996158  0.69689601    -0.46400
Co1024     Co  0.57030423  0.01108999  0.75302286     0.73900
C1025       C  0.57476124  0.96999980  0.69984951    -0.06700
C1026       C  0.42198960  0.90727145  0.80308261    -0.06300
N1027       N  0.46737644  0.03887305  0.71998428    -0.25800
N1028       N  0.51304745  0.91821628  0.80576206    -0.46600
H1029       H  0.42877321  0.88718685  0.69135159     0.07100
C1030       C  0.59462683  0.09954567  0.69859788    -0.06700
Cl1031     Cl  0.50967784  0.00478759  0.75198834    -0.49700
C1032       C  0.61026170  0.08144997  0.82382638     0.42800
H1033       H  0.41865777  0.02174899  0.69443629     0.07000
N1034       N  0.61486779  0.05910631  0.70260328    -0.46400
C1035       C  0.07562785  0.60913387  0.81684021     0.42700
N1036       N  0.06718838  0.56992277  0.78324729     0.01500
C1037       C  0.91133597  0.48885293  0.69661191    -0.06300
H1038       H  0.88785681  0.46706403  0.81199883     0.07000
C1039       C  0.96445444  0.39831528  0.80483966    -0.06700
Co1040     Co  0.99947878  0.55332350  0.75049830     0.74200
N1041       N  0.93478512  0.49705965  0.78357587    -0.25900
Co1042     Co  0.93565913  0.46050391  0.75187223     0.74100
C1043       C  0.93162382  0.39102051  0.82021793     0.42800
N1044       N  0.04763469  0.46493039  0.78353152     0.01200
N1045       N  0.94007402  0.42760711  0.78455540     0.01300
N1046       N  0.95473969  0.54932617  0.69839362    -0.46700
H1047       H  0.02420077  0.61095031  0.80400130     0.07000
N1048       N  0.95990800  0.53233907  0.78234422     0.01600
N1049       N  0.93911499  0.42581451  0.71984317     0.01300
C1050       C  0.93082144  0.38982993  0.68349970     0.42900
N1051       N  0.07245861  0.50033004  0.78425338    -0.25300
C1052       C  0.04384136  0.59898380  0.69896778    -0.06200
N1053       N  0.09001582  0.58951961  0.80477641    -0.46400
N1054       N  0.91580417  0.40710809  0.69827895    -0.46600
C1055       C  0.07787098  0.60773571  0.68505830     0.42700
N1056       N  0.95941404  0.53033201  0.71919677     0.01500
N1057       N  0.07245985  0.49943589  0.71916641    -0.25300
N1058       N  0.03943103  0.57596338  0.78134575    -0.25800
N1059       N  0.04766200  0.46401310  0.72041041     0.01200
H1060       H  0.11784631  0.53028002  0.68923733     0.07100
H1061       H  0.98294216  0.38797248  0.69397534     0.07100
N1062       N  0.93442115  0.49497992  0.71908143    -0.25900
N1063       N  0.96761639  0.42115867  0.78339812    -0.25500
N1064       N  0.06740933  0.56870277  0.71901344     0.01500
C1065       C  0.92624263  0.53006994  0.81827151     0.42900
C1066       C  0.09496402  0.50594581  0.80717012    -0.06700
N1067       N  0.96742545  0.42050436  0.72022551    -0.25500
H1068       H  0.98269496  0.38767886  0.80880219     0.07100
N1069       N  0.95569275  0.55273581  0.80222173    -0.46700
H1070       H  0.11853741  0.53213025  0.81301903     0.07100
C1071       C  0.08022256  0.46719497  0.68351443     0.42800
C1072       C  0.04262708  0.60033174  0.80126861    -0.06200
Co1073     Co  0.07138265  0.53537406  0.75148490     0.73800
N1074       N  0.05186464  0.44560366  0.80432401    -0.46400
C1075       C  0.92525456  0.52524730  0.68299656     0.43000
N1076       N  0.09146324  0.58821918  0.69830271    -0.46400
Co1077     Co  0.00759159  0.44241546  0.75187426     0.73900
C1078       C  0.96448636  0.39823422  0.69827688    -0.06700
C1079       C  0.91186644  0.49276605  0.80577895    -0.06300
N1080       N  0.03951985  0.57465667  0.71946419    -0.25800
N1081       N  0.91738907  0.40976946  0.80657178    -0.46600
H1082       H  0.88736717  0.46269178  0.69128326     0.07100
C1083       C  0.09449289  0.50437123  0.69602021    -0.06700
Cl1084     Cl  0.00358225  0.49790593  0.75146729    -0.49700
C1085       C  0.08090280  0.46914656  0.82046398     0.42800
H1086       H  0.02597532  0.61010553  0.69516623     0.07000
N1087       N  0.05169528  0.44400863  0.70010922    -0.46400
C1088       C  0.39445650  0.46703344  0.82130837     0.42700
N1089       N  0.43225975  0.49515649  0.78645682     0.01500
C1090       C  0.50646561  0.41669395  0.69616034    -0.06300
H1091       H  0.54080849  0.42146976  0.80931744     0.07000
C1092       C  0.60579797  0.56354239  0.80253504    -0.06700
Co1093     Co  0.44687815  0.44187720  0.75443102     0.74200
N1094       N  0.50657658  0.43531832  0.78365494    -0.25900
Co1095     Co  0.53983865  0.47163420  0.75053948     0.74100
C1096       C  0.61526761  0.53817906  0.81617647     0.42800
N1097       N  0.53745146  0.58071359  0.78311805     0.01200
N1098       N  0.57552344  0.50976515  0.78205943     0.01300
N1099       N  0.44637872  0.39836869  0.70179733    -0.46700
H1100       H  0.39335579  0.41293725  0.81225072     0.07000
N1101       N  0.47140759  0.42487888  0.78513773     0.01600
N1102       N  0.57243907  0.50950106  0.71785080     0.01300
C1103       C  0.61178399  0.53927062  0.68408935     0.42900
N1104       N  0.50219600  0.57012184  0.78475845    -0.25300
C1105       C  0.39673541  0.43842547  0.70424939    -0.06200
N1106       N  0.41237280  0.49963441  0.80686410    -0.46400
N1107       N  0.59193268  0.50558434  0.69682520    -0.46600
C1108       C  0.38803456  0.46372196  0.68968587     0.42700
N1109       N  0.46703959  0.42313923  0.72163813     0.01500
N1110       N  0.49935833  0.56841145  0.72062747    -0.25300
N1111       N  0.42714356  0.46143132  0.78660285    -0.25800
N1112       N  0.53455626  0.57884618  0.72039507     0.01200
H1113       H  0.46705015  0.58395472  0.69431348     0.07100
H1114       H  0.61457929  0.59358901  0.69586119     0.07100
N1115       N  0.50236562  0.43433606  0.71923520    -0.25900
N1116       N  0.58129795  0.54369876  0.78192895    -0.25500
N1117       N  0.42941230  0.49343812  0.72236164     0.01500
C1118       C  0.47886063  0.39531155  0.82032327     0.42900
C1119       C  0.49807208  0.58930505  0.80663333    -0.06700
N1120       N  0.57891625  0.54361579  0.71927978    -0.25500
H1121       H  0.61674592  0.59263334  0.80637776     0.07100
N1122       N  0.45398331  0.40112063  0.80649414    -0.46700
H1123       H  0.47258908  0.58765230  0.81302248     0.07100
C1124       C  0.52952159  0.60930670  0.68490049     0.42800
C1125       C  0.40413016  0.44193917  0.80802634    -0.06200
Co1126     Co  0.46513155  0.53230249  0.75354001     0.73800
N1127       N  0.55815076  0.60676451  0.80204357    -0.46400
C1128       C  0.46897589  0.39281218  0.68462179     0.43000
N1129       N  0.40953555  0.49759714  0.70166869    -0.46400
Co1130     Co  0.55808076  0.56179422  0.75125759     0.73900
C1131       C  0.60322940  0.56427800  0.69892143    -0.06700
C1132       C  0.51409624  0.41822319  0.80517746    -0.06300
N1133       N  0.42249293  0.45911251  0.72388866    -0.25800
N1134       N  0.59556016  0.50521276  0.80234321    -0.46600
H1135       H  0.53213256  0.41926835  0.68911551     0.07100
C1136       C  0.49326678  0.58624478  0.69881513    -0.06700
Cl1137     Cl  0.50245006  0.50188226  0.75245757    -0.49700
C1138       C  0.53552534  0.61388040  0.81757931     0.42800
H1139       H  0.38526360  0.40915661  0.70090122     0.07000
N1140       N  0.55327051  0.60300138  0.69976856    -0.46400
C1141       C  0.81074467  0.47103061  0.50283810     0.42700
N1142       N  0.78770948  0.50409090  0.51481732     0.01500
C1143       C  0.74984315  0.60989682  0.92271615    -0.06300
H1144       H  0.88313373  0.63865423  0.91215658     0.07000
C1145       C  0.90111187  0.67271879  0.53324127    -0.06700
Co1146     Co  0.77118261  0.53449902  0.96313651     0.74200
N1147       N  0.83802337  0.60077192  0.94001499    -0.25900
Co1148     Co  0.81767963  0.62956983  0.96506965     0.74100
C1149       C  0.92294118  0.69022348  0.00444306     0.42800
N1150       N  0.83492652  0.59274935  0.56596157     0.01200
N1151       N  0.86641739  0.65744600  0.99021919     0.01300
N1152       N  0.72217551  0.54782943  0.92408419    -0.46700
H1153       H  0.81275361  0.48482691  0.95141422     0.07000
N1154       N  0.81932612  0.56439250  0.94075814     0.01600
N1155       N  0.79491564  0.65516665  0.99054514     0.01300
C1156       C  0.76990218  0.68564967  0.50582639     0.42900
N1157       N  0.81454759  0.55678703  0.56251647    -0.25300
C1158       C  0.68800348  0.48682913  0.97602824    -0.06200
N1159       N  0.79991795  0.48321479  0.52577383    -0.46400
N1160       N  0.77826276  0.67268705  0.98041793    -0.46600
C1161       C  0.66375129  0.47596494  0.50056487     0.42700
N1162       N  0.75078517  0.56335783  0.94172142     0.01500
N1163       N  0.74867917  0.55946169  0.56205911    -0.25300
N1164       N  0.79277556  0.50642231  0.98477497    -0.25800
N1165       N  0.76662536  0.59544091  0.56562870     0.01200
H1166       H  0.70127134  0.51477683  0.58122845     0.07100
H1167       H  0.77566781  0.67437908  0.55457700     0.07100
N1168       N  0.76802951  0.59969845  0.94137820    -0.25900
N1169       N  0.86721156  0.65467350  0.52189720    -0.25500
N1170       N  0.72002795  0.50683205  0.51401038     0.01500
C1171       C  0.85914375  0.57560817  0.90729839     0.42900
C1172       C  0.82745444  0.53973972  0.57870803    -0.06700
N1173       N  0.79832531  0.65592781  0.52117650    -0.25500
H1174       H  0.90724027  0.67429688  0.55632909     0.07100
N1175       N  0.83089734  0.54880826  0.92198092    -0.46700
H1176       H  0.81463326  0.51018525  0.58111568     0.07100
C1177       C  0.71943181  0.57470455  0.59356031     0.42800
C1178       C  0.80900937  0.48843393  0.97432882    -0.06200
Co1179     Co  0.76753276  0.53150054  0.53846458     0.73800
N1180       N  0.86235754  0.60156743  0.58480699    -0.46400
C1181       C  0.71920052  0.57498404  0.91136956     0.43000
N1182       N  0.68616326  0.48721903  0.52408063    -0.46400
Co1183     Co  0.81751404  0.62594980  0.54424914     0.73900
C1184       C  0.78082799  0.67274610  0.53165456    -0.06700
C1185       C  0.86457094  0.61077381  0.91940422    -0.06300
N1186       N  0.72256902  0.50519298  0.98586527    -0.25800
N1187       N  0.90068080  0.67776909  0.98054891    -0.46600
H1188       H  0.75828665  0.63792611  0.91657611     0.07100
C1189       C  0.71907606  0.54414217  0.57865726    -0.06700
Cl1190     Cl  0.79463069  0.58162080  0.50332256    -0.49700
C1191       C  0.85924684  0.56894848  0.59313582     0.42800
H1192       H  0.67995734  0.48374277  0.95326521     0.07000
N1193       N  0.75011048  0.60610977  0.58490813    -0.46400
C1194       C  0.67070163  0.19758604  0.49720296     0.42700
N1195       N  0.72711612  0.22083097  0.50925038     0.01500
C1196       C  0.86812026  0.25298540  0.92442001    -0.06300
H1197       H  0.75439218  0.11694457  0.92250001     0.07000
C1198       C  0.77655945  0.10388497  0.52282083    -0.06700
Co1199     Co  0.77409842  0.23780013  0.96501853     0.74200
N1200       N  0.76792955  0.16776447  0.94455418    -0.25900
Co1201     Co  0.81735265  0.18677102  0.96817757     0.74100
C1202       C  0.76495743  0.08130386  0.00634086     0.42800
N1203       N  0.76370870  0.16894866  0.55903364     0.01200
N1204       N  0.79346096  0.13844260  0.99338948     0.01300
N1205       N  0.83631079  0.28295036  0.92563552    -0.46700
H1206       H  0.68262952  0.20147666  0.95530456     0.07000
N1207       N  0.75181502  0.18772534  0.94469968     0.01600
N1208       N  0.86561148  0.20722523  0.99355289     0.01300
C1209       C  0.92341390  0.23170480  0.50084869     0.42900
N1210       N  0.74863759  0.18969666  0.55628041    -0.25300
C1211       C  0.81568579  0.32182521  0.97451276    -0.06200
N1212       N  0.69389074  0.20728492  0.52001202    -0.46400
N1213       N  0.89986648  0.22216137  0.98370775    -0.46600
C1214       C  0.82756523  0.34554544  0.50028165     0.42700
N1215       N  0.82191135  0.25423943  0.94311582     0.01500
N1216       N  0.81916587  0.25585165  0.55959976    -0.25300
N1217       N  0.72584916  0.22101301  0.98735665    -0.25800
N1218       N  0.83615383  0.23687597  0.56214127     0.01200
H1219       H  0.82275884  0.30226226  0.58253341     0.07100
H1220       H  0.90625954  0.22501661  0.54942620     0.07100
N1221       N  0.83959234  0.23582034  0.94322519    -0.25900
N1222       N  0.79365344  0.13875337  0.51327177    -0.25500
N1223       N  0.79933770  0.28804937  0.51134507     0.01500
C1224       C  0.71698292  0.14241794  0.91693916     0.42900
C1225       C  0.71763644  0.17532919  0.57167805    -0.06700
N1226       N  0.86520136  0.20677547  0.51549336    -0.25500
H1227       H  0.77145815  0.09559991  0.54554418     0.07100
N1228       N  0.72189209  0.17382625  0.92862438    -0.46700
H1229       H  0.70101146  0.18796417  0.57477766     0.07100
C1230       C  0.86098351  0.28023526  0.59404743     0.42800
C1231       C  0.69109966  0.20628991  0.97793082    -0.06200
Co1232     Co  0.77350796  0.23896825  0.53414380     0.73800
N1233       N  0.74436114  0.14063842  0.57708097    -0.46400
C1234       C  0.86568070  0.28467038  0.91301716     0.43000
N1235       N  0.81526163  0.32140302  0.52278026    -0.46400
Co1236     Co  0.81520349  0.18718209  0.53800816     0.73900
C1237       C  0.89927745  0.22130862  0.52640403    -0.06700
C1238       C  0.74785040  0.13816523  0.92729990    -0.06300
N1239       N  0.79813864  0.28795799  0.98593728    -0.25800
N1240       N  0.77763263  0.10430790  0.98306908    -0.46600
H1241       H  0.88725298  0.24391723  0.91892703     0.07100
C1242       C  0.83294834  0.28360264  0.57864496    -0.06700
Cl1243     Cl  0.79649727  0.21347380  0.49795992    -0.49700
C1244       C  0.71416175  0.14252398  0.58509180     0.42800
H1245       H  0.81842511  0.32780420  0.95141178     0.07000
N1246       N  0.86167064  0.25048314  0.58311116    -0.46400
C1247       C  0.34237078  0.80939709  0.49758576     0.42700
N1248       N  0.28676194  0.78411280  0.51263492     0.01500
C1249       C  0.13362032  0.74449557  0.92196589    -0.06300
H1250       H  0.24659610  0.88091226  0.90994595     0.07000
C1251       C  0.23325205  0.89559531  0.53268497    -0.06700
Co1252     Co  0.23145293  0.76406451  0.95819028     0.74200
N1253       N  0.23503932  0.83241475  0.93520478    -0.25900
Co1254     Co  0.18700581  0.81408116  0.96116502     0.74100
C1255       C  0.23523327  0.92011002  0.99888120     0.42800
N1256       N  0.24535470  0.82948728  0.56621430     0.01200
N1257       N  0.21066725  0.86339923  0.98564867     0.01300
N1258       N  0.16469099  0.71377936  0.92420106    -0.46700
H1259       H  0.32062738  0.80011949  0.94249992     0.07000
N1260       N  0.25041130  0.81175931  0.93480192     0.01600
N1261       N  0.13972463  0.79366739  0.98736489     0.01300
C1262       C  0.08589621  0.76453573  0.50752985     0.42900
N1263       N  0.26217505  0.81062285  0.56183709    -0.25300
C1264       C  0.19771429  0.68086666  0.97365346    -0.06200
N1265       N  0.32102431  0.79895584  0.52175777    -0.46400
N1266       N  0.10539733  0.77875028  0.97772542    -0.46600
C1267       C  0.19022216  0.65808920  0.50291266     0.42700
N1268       N  0.18112397  0.74445676  0.93939205     0.01500
N1269       N  0.19360974  0.74334958  0.56271528    -0.25300
N1270       N  0.28213962  0.78511915  0.97766008    -0.25800
N1271       N  0.17497417  0.76056311  0.56609114     0.01200
H1272       H  0.18958730  0.69459758  0.58106977     0.07100
H1273       H  0.10263940  0.76893826  0.55612889     0.07100
N1274       N  0.16391587  0.76334333  0.93871794    -0.25900
N1275       N  0.21538989  0.86113025  0.52214166    -0.25500
N1276       N  0.21664228  0.71491266  0.51477131     0.01500
C1277       C  0.28214274  0.85355376  0.90322846     0.42900
C1278       C  0.29128020  0.82294512  0.57916774    -0.06700
N1279       N  0.14421341  0.79177662  0.52258049    -0.25500
H1280       H  0.23850295  0.90260128  0.55560037     0.07100
N1281       N  0.27784833  0.82312609  0.91627205    -0.46700
H1282       H  0.30857117  0.81088571  0.58116906     0.07100
C1283       C  0.14793814  0.71239096  0.59297804     0.42800
C1284       C  0.31543048  0.79860119  0.96571037    -0.06200
Co1285     Co  0.24015501  0.76320946  0.53813220     0.73800
N1286       N  0.26158232  0.85449759  0.58731287    -0.46400
C1287       C  0.13435845  0.71127624  0.91252679     0.43000
N1288       N  0.20310377  0.68149106  0.52572383    -0.46400
Co1289     Co  0.19437353  0.81141587  0.54490528     0.73900
C1290       C  0.10987750  0.77476238  0.53325677    -0.06700
C1291       C  0.25352900  0.86018864  0.91574926    -0.06300
N1292       N  0.21246955  0.71604764  0.98203908    -0.25800
N1293       N  0.22512496  0.89748604  0.97531931    -0.46600
H1294       H  0.11409821  0.75322086  0.91690185     0.07100
C1295       C  0.17876760  0.71296577  0.57873472    -0.06700
Cl1296     Cl  0.21455517  0.78836575  0.50379011    -0.49700
C1297       C  0.29066405  0.85137942  0.59638657     0.42800
H1298       H  0.19299245  0.67119269  0.95125594     0.07000
N1299       N  0.14721689  0.74307577  0.58472747    -0.46400
C1300       C  0.57600275  0.85899743  0.91316995     0.42700
N1301       N  0.59723372  0.83155024  0.93976414     0.01500
C1302       C  0.48775398  0.69172924  0.53492757    -0.06300
H1303       H  0.49525248  0.81852331  0.55561730     0.07000
C1304       C  0.62482503  0.87218343  0.57987251    -0.06700
Co1305     Co  0.53469194  0.76294858  0.96484516     0.74200
N1306       N  0.51499613  0.79726652  0.52220804    -0.25900
Co1307     Co  0.54283418  0.77563995  0.54360807     0.74100
C1308       C  0.59147051  0.87162454  0.59089250     0.42800
N1309       N  0.66328148  0.86470654  0.51060163     0.01200
N1310       N  0.57600756  0.82516888  0.56296773     0.01300
N1311       N  0.49118518  0.68083945  0.97736700    -0.46700
H1312       H  0.51638268  0.81490216  0.92309498     0.07000
N1313       N  0.50655798  0.78286739  0.98850966     0.01600
N1314       N  0.57112807  0.75471389  0.56419746     0.01300
C1315       C  0.58012312  0.72018936  0.59340694     0.42900
N1316       N  0.65731524  0.86261983  0.98548686    -0.25300
C1317       C  0.54981311  0.71235223  0.92721781    -0.06200
N1318       N  0.60751439  0.86045172  0.92218262    -0.46400
N1319       N  0.55458490  0.72604072  0.58145098    -0.46600
C1320       C  0.58134905  0.71266911  0.91467454     0.42700
N1321       N  0.50917194  0.71443132  0.98833923     0.01500
N1322       N  0.65974649  0.79415450  0.98480764    -0.25300
N1323       N  0.56118869  0.81143165  0.94190703    -0.25800
N1324       N  0.66004642  0.79261559  0.51184828     0.01200
H1325       H  0.68333185  0.77604443  0.95147037     0.07100
H1326       H  0.64336164  0.75516233  0.58609065     0.07100
N1327       N  0.50970267  0.72549937  0.52388911    -0.25900
N1328       N  0.61214720  0.84211551  0.56238058    -0.25500
N1329       N  0.59963969  0.76236405  0.93952173     0.01500
C1330       C  0.48214119  0.82193570  0.50680075     0.42900
C1331       C  0.67563273  0.89744752  0.97569493    -0.06700
N1332       N  0.60710390  0.76951276  0.56334882    -0.25500
H1333       H  0.65340169  0.89138980  0.58453483     0.07100
N1334       N  0.48618697  0.79594097  0.97797335    -0.46700
H1335       H  0.67893141  0.90540816  0.95289682     0.07100
C1336       C  0.68869155  0.76468702  0.49762312     0.42800
C1337       C  0.54561703  0.82648113  0.92610976    -0.06200
Co1338     Co  0.62953365  0.81330941  0.96171150     0.73800
N1339       N  0.68152876  0.89939163  0.51974998    -0.46400
C1340       C  0.47164887  0.66833066  0.50911531     0.43000
N1341       N  0.61160807  0.74507323  0.92226301    -0.46400
Co1342     Co  0.63707165  0.81777943  0.53759854     0.73900
C1343       C  0.61581332  0.74941156  0.58144484    -0.06700
C1344       C  0.49734114  0.81379118  0.53269214    -0.06300
N1345       N  0.56356880  0.74380017  0.94205465    -0.25800
N1346       N  0.56296104  0.84149524  0.57942798    -0.46600
H1347       H  0.48315068  0.68510150  0.55793742     0.07100
C1348       C  0.67976267  0.77994545  0.97436776    -0.06700
Cl1349     Cl  0.58546950  0.79365901  0.50278257    -0.49700
C1350       C  0.68888880  0.92046202  0.00202861     0.42800
H1351       H  0.52097118  0.69234715  0.92449561     0.07000
N1352       N  0.67903083  0.77726503  0.52139384    -0.46400
C1353       C  0.18193680  0.51926056  0.50077892     0.42700
N1354       N  0.20880533  0.48960057  0.51388965     0.01500
C1355       C  0.25264469  0.38322555  0.92142129    -0.06300
H1356       H  0.11425411  0.35627898  0.91951345     0.07000
C1357       C  0.10746206  0.32041606  0.53086095    -0.06700
Co1358     Co  0.23455830  0.46146343  0.95999238     0.74200
N1359       N  0.16468809  0.39499854  0.94176579    -0.25900
Co1360     Co  0.18611404  0.36660852  0.96530556     0.74100
C1361       C  0.08364927  0.31288778  0.00919154     0.42800
N1362       N  0.17070792  0.40123493  0.56557920     0.01200
N1363       N  0.13958964  0.34190542  0.99297513     0.01300
N1364       N  0.28039033  0.44530900  0.92092417    -0.46700
H1365       H  0.19680251  0.51476675  0.95067051     0.07000
N1366       N  0.18397541  0.43128560  0.94140374     0.01600
N1367       N  0.20887877  0.34052871  0.98954113     0.01300
C1368       C  0.24075672  0.31465094  0.50180435     0.42900
N1369       N  0.18791692  0.43728311  0.56213316    -0.25300
C1370       C  0.31884054  0.50907672  0.96628340    -0.06200
N1371       N  0.19387531  0.50840448  0.52416927    -0.46400
N1372       N  0.22271357  0.32084285  0.97861657    -0.46600
C1373       C  0.33488079  0.53363718  0.49912196     0.42700
N1374       N  0.25149233  0.43053024  0.93810966     0.01500
N1375       N  0.25848033  0.44198259  0.56039124    -0.25300
N1376       N  0.21718151  0.49218443  0.98273668    -0.25800
N1377       N  0.24297377  0.40594873  0.56343318     0.01200
H1378       H  0.30715201  0.48821236  0.57807906     0.07100
H1379       H  0.23594503  0.32392484  0.55091443     0.07100
N1380       N  0.23421213  0.39420867  0.93912738    -0.25900
N1381       N  0.14160986  0.34026916  0.52007041    -0.25500
N1382       N  0.28057190  0.49527805  0.51294764     0.01500
C1383       C  0.13847924  0.41928349  0.91351004     0.42900
C1384       C  0.17259656  0.45174340  0.57866525    -0.06700
N1385       N  0.21321738  0.34442603  0.51857655    -0.25500
H1386       H  0.10067716  0.31798014  0.55383388     0.07100
N1387       N  0.16958622  0.44641931  0.92504854    -0.46700
H1388       H  0.18217376  0.48083823  0.58096319     0.07100
C1389       C  0.29282429  0.42914042  0.58909995     0.42800
C1390       C  0.20184547  0.51148745  0.97332629    -0.06200
Co1391     Co  0.23408300  0.46637611  0.53760050     0.73800
N1392       N  0.14350719  0.38982303  0.58505344    -0.46400
C1393       C  0.28374570  0.41777685  0.90994948     0.43000
N1394       N  0.31346885  0.51935709  0.52288265    -0.46400
Co1395     Co  0.19156887  0.37177090  0.54258966     0.73900
C1396       C  0.23050978  0.32693531  0.52823145    -0.06700
C1397       C  0.13493696  0.38443938  0.92438082    -0.06300
N1398       N  0.28567726  0.49108821  0.97875503    -0.25800
N1399       N  0.10462701  0.32288848  0.98465789    -0.46600
H1400       H  0.24503227  0.35500483  0.91682860     0.07100
C1401       C  0.28980977  0.45873078  0.57552992    -0.06700
Cl1402     Cl  0.21070246  0.41648647  0.50211268    -0.49700
C1403       C  0.14327598  0.42075444  0.59366964     0.42800
H1404       H  0.32368832  0.51087091  0.94301802     0.07000
N1405       N  0.26228529  0.39695875  0.58127888    -0.46400
C1406       C  0.43752148  0.14124982  0.91736577     0.42700
N1407       N  0.41541383  0.16942112  0.94224862     0.01500
C1408       C  0.51365181  0.31807253  0.53059050    -0.06300
H1409       H  0.52119283  0.19886780  0.55811693     0.07000
C1410       C  0.39147169  0.13481003  0.58143700    -0.06700
Co1411     Co  0.47591845  0.23521747  0.97165166     0.74200
N1412       N  0.49803753  0.21498829  0.52333091    -0.25900
Co1413     Co  0.46694382  0.23386717  0.54342893     0.74100
C1414       C  0.42643038  0.13939118  0.59288161     0.42800
N1415       N  0.34743771  0.13568737  0.51316824     0.01200
N1416       N  0.43765516  0.18459156  0.56473928     0.01300
N1417       N  0.51987124  0.31648101  0.98499861    -0.46700
H1418       H  0.49639414  0.18277589  0.93195309     0.07000
N1419       N  0.49996940  0.21362359  0.99843696     0.01600
N1420       N  0.43550290  0.25175009  0.56361827     0.01300
C1421       C  0.42167283  0.28192018  0.59372999     0.42900
N1422       N  0.35197789  0.13819099  0.98382942    -0.25300
C1423       C  0.46810597  0.28736059  0.93022946    -0.06200
N1424       N  0.40613206  0.14167777  0.92361434    -0.46400
N1425       N  0.44957190  0.28038843  0.58117442    -0.46600
C1426       C  0.43919173  0.28911509  0.91459258     0.42700
N1427       N  0.49981556  0.28299997  0.99575330     0.01500
N1428       N  0.35041655  0.20744431  0.98311843    -0.25300
N1429       N  0.45100266  0.18756867  0.94748357    -0.25800
N1430       N  0.34626682  0.20492214  0.51206641     0.01200
H1431       H  0.32969405  0.22759600  0.94892540     0.07100
H1432       H  0.35933707  0.24089204  0.58753135     0.07100
N1433       N  0.49570191  0.28322993  0.52102508    -0.25900
N1434       N  0.40149412  0.16437623  0.56389878    -0.25500
N1435       N  0.41545112  0.24009329  0.94129327     0.01500
C1436       C  0.53479873  0.19429235  0.50981455     0.42900
C1437       C  0.33623471  0.10399793  0.97279348    -0.06700
N1438       N  0.39929583  0.23312809  0.56343140    -0.25500
H1439       H  0.36355113  0.11324413  0.58565887     0.07100
N1440       N  0.52109974  0.20035453  0.99036529    -0.46700
H1441       H  0.33583827  0.09720256  0.94992712     0.07100
C1442       C  0.31525043  0.22993418  0.49740769     0.42800
C1443       C  0.46711644  0.17203912  0.93293189    -0.06200
Co1444     Co  0.38219130  0.18839792  0.96186753     0.73800
N1445       N  0.32773492  0.10146913  0.52305836    -0.46400
C1446       C  0.52857377  0.34041343  0.50407833     0.43000
N1447       N  0.40687574  0.25853229  0.92205565    -0.46400
Co1448     Co  0.37242891  0.18387004  0.53862166     0.73900
C1449       C  0.38765369  0.25014966  0.58214415    -0.06700
C1450       C  0.51836141  0.20198796  0.53497344    -0.06300
N1451       N  0.45117182  0.25650275  0.94578610    -0.25800
N1452       N  0.45320713  0.17088688  0.58151959    -0.46600
H1453       H  0.51632645  0.32637966  0.55326929     0.07100
C1454       C  0.33144592  0.22250040  0.97191857    -0.06700
Cl1455     Cl  0.42339743  0.20972952  0.50314417    -0.49700
C1456       C  0.32122955  0.07967837  0.99807500     0.42800
H1457       H  0.49748905  0.30556775  0.92903328     0.07000
N1458       N  0.32585844  0.21872851  0.52138603    -0.46400
C1459       C  0.30140015  0.27658315  0.47624345    -0.12100
C1460       C  0.29463991  0.25014381  0.49793360     0.04900
C1461       C  0.26938389  0.24459701  0.52042789    -0.07400
C1462       C  0.25270899  0.26629366  0.52153114    -0.08100
C1463       C  0.25975351  0.29297120  0.50003686    -0.02700
C1464       C  0.28427941  0.29790860  0.47710751     0.04200
N1465       N  0.29379347  0.32592050  0.45549417     0.66700
H1466       H  0.32098658  0.28163102  0.45898146     0.15600
H1467       H  0.23319428  0.26138759  0.53882674     0.15300
N1468       N  0.25853884  0.21546546  0.54121707     0.74400
O1469       O  0.29528999  0.34444770  0.95046540    -0.39100
O1470       O  0.28366815  0.31690078  0.42930561    -0.39000
O1471       O  0.28492253  0.24157740  0.07187528    -0.39700
O1472       O  0.23560576  0.18283229  0.53375403    -0.39800
C1473       C  0.43562578  0.60592205  0.96910405    -0.12100
C1474       C  0.43845674  0.63208861  0.50684435     0.04900
C1475       C  0.42522384  0.60604977  0.52965202    -0.07400
C1476       C  0.39185128  0.57329905  0.52602434    -0.08100
C1477       C  0.37104843  0.56674625  0.50040088    -0.02700
C1478       C  0.40218445  0.57331818  0.96567718     0.04200
N1479       N  0.38644301  0.56403552  0.93705213     0.66700
H1480       H  0.44785175  0.62310033  0.94998645     0.15600
H1481       H  0.38173509  0.55354790  0.54334883     0.15300
N1482       N  0.44461051  0.61235541  0.55668856     0.74400
O1483       O  0.37030322  0.58009525  0.92691247    -0.39100
O1484       O  0.37322240  0.59098109  0.42769282    -0.39000
O1485       O  0.43289306  0.62061723  0.57916564    -0.39700
O1486       O  0.46707192  0.60106554  0.55967224    -0.39800
C1487       C  0.25826306  0.97692384  0.48023089    -0.12100
C1488       C  0.25587549  0.96093523  0.99793558     0.04900
C1489       C  0.24927442  0.98214151  0.01838076    -0.07400
C1490       C  0.27136789  0.02065767  0.01842315    -0.08100
C1491       C  0.30005461  0.03879409  0.99824780    -0.02700
C1492       C  0.27508719  0.01533733  0.47775440     0.04200
N1493       N  0.26807390  0.03034885  0.45212095     0.66700
H1494       H  0.24098141  0.95995982  0.46243933     0.15600
H1495       H  0.26539463  0.03652546  0.03384946     0.15300
N1496       N  0.21899990  0.96518006  0.03821060     0.74400
O1497       O  0.36961119  0.04375949  0.96957574    -0.39100
O1498       O  0.24029468  0.03425988  0.45147536    -0.39000
O1499       O  0.22500592  0.96508132  0.06527935    -0.39700
O1500       O  0.28003020  0.96895160  0.57784760    -0.39800
C1501       C  0.18068278  0.56843794  0.52891554    -0.12100
C1502       C  0.17395321  0.54957158  0.50224090     0.04900
C1503       C  0.17080027  0.56576442  0.97927798    -0.07400
C1504       C  0.17079010  0.59889749  0.98017685    -0.08100
C1505       C  0.17961174  0.61902437  0.50441257    -0.02700
C1506       C  0.18403138  0.60309026  0.53020744     0.04200
N1507       N  0.19471632  0.62254070  0.55741658     0.66700
H1508       H  0.18635943  0.55774539  0.54860206     0.15600
H1509       H  0.15943729  0.60618767  0.96179690     0.15300
N1510       N  0.15492634  0.54235885  0.95448054     0.74400
O1511       O  0.17137790  0.61290505  0.57770097    -0.39100
O1512       O  0.24892805  0.65760867  0.05428449    -0.39000
O1513       O  0.12149265  0.51933076  0.44634305    -0.39700
O1514       O  0.16937999  0.55353123  0.92963264    -0.39800
C1515       C  0.39811686  0.82752056  0.52638363    -0.12100
C1516       C  0.38200322  0.82238719  0.49861802     0.04900
C1517       C  0.39853540  0.81717269  0.96677969    -0.07400
C1518       C  0.43078133  0.81595807  0.97057399    -0.08100
C1519       C  0.45169999  0.82967359  0.50505399    -0.02700
C1520       C  0.43256857  0.83109695  0.52988687     0.04200
N1521       N  0.44649269  0.83448746  0.55891075     0.66700
H1522       H  0.38310057  0.82672991  0.54588148     0.15600
H1523       H  0.44430792  0.81344600  0.95128315     0.15300
N1524       N  0.38584388  0.81643597  0.93763103     0.74400
O1525       O  0.46650194  0.86624981  0.56951643    -0.39100
O1526       O  0.43156353  0.80708866  0.57591852    -0.39000
O1527       O  0.39677733  0.84645434  0.92419112    -0.39700
O1528       O  0.37172427  0.78672345  0.92326601    -0.39800
C1529       C  0.73997168  0.01978129  0.03070635    -0.12100
C1530       C  0.74562879  0.04018972  0.00489191     0.04900
C1531       C  0.74802868  0.02044461  0.47037568    -0.07400
C1532       C  0.72923739  0.98170721  0.47089250    -0.08100
C1533       C  0.70916212  0.96164564  0.00362614    -0.02700
C1534       C  0.72252858  0.98111945  0.03025171     0.04200
N1535       N  0.71963067  0.96232716  0.05702984     0.66700
H1536       H  0.74982909  0.03379064  0.05146513     0.15600
H1537       H  0.73097186  0.96712979  0.45197301     0.15300
N1538       N  0.76910872  0.03909479  0.44506376     0.74400
O1539       O  0.74488839  0.95605171  0.06419179    -0.39100
O1540       O  0.65339366  0.95622511  0.54674608    -0.39000
O1541       O  0.76396225  0.04520350  0.93443631    -0.39700
O1542       O  0.75341937  0.04398928  0.42341203    -0.39800
C1543       C  0.98190464  0.24724748  0.52622150    -0.12100
C1544       C  0.96428488  0.24961810  0.50088975     0.04900
C1545       C  0.98456819  0.26569320  0.98110526    -0.07400
C1546       C  0.02328053  0.28469966  0.98241130    -0.08100
C1547       C  0.04234845  0.28490582  0.50399667    -0.02700
C1548       C  0.02028602  0.26440997  0.52799802     0.04200
N1549       N  0.03601902  0.25962524  0.55416563     0.66700
H1550       H  0.96582303  0.23157906  0.54489953     0.15600
H1551       H  0.03854573  0.29435878  0.96214606     0.15300
N1552       N  0.96727568  0.26034136  0.95318074     0.74400
O1553       O  0.03606645  0.27633510  0.57713817    -0.39100
O1554       O  0.04082708  0.23238607  0.55620763    -0.39000
O1555       O  0.96293365  0.28558479  0.94245069    -0.39700
O1556       O  0.96336296  0.23426075  0.93700010    -0.39800
C1557       C  0.62363697  0.19789718  0.52835061    -0.12100
C1558       C  0.63274714  0.18943602  0.50102485     0.04900
C1559       C  0.60659405  0.17662702  0.47832573    -0.07400
C1560       C  0.57355841  0.17620167  0.48249726    -0.08100
C1561       C  0.56601367  0.18796561  0.50904194    -0.02700
C1562       C  0.59082434  0.19742886  0.53257489     0.04200
N1563       N  0.58516032  0.20991300  0.56008795     0.66700
H1564       H  0.64303076  0.20728241  0.54634581     0.15600
H1565       H  0.55178168  0.16310050  0.97137749     0.15300
N1566       N  0.61280216  0.16378194  0.45117110     0.74400
O1567       O  0.57423453  0.18815933  0.58165055    -0.39100
O1568       O  0.59368085  0.23431353  0.07647344    -0.39000
O1569       O  0.60432499  0.13046829  0.44890334    -0.39700
O1570       O  0.61683148  0.18163624  0.93574870    -0.39800
C1571       C  0.98237230  0.71523085  0.97723126    -0.12100
C1572       C  0.96677406  0.70817480  0.50803908     0.04900
C1573       C  0.98779119  0.72746688  0.53294624    -0.07400
C1574       C  0.02622802  0.74512704  0.53217928    -0.08100
C1575       C  0.04495481  0.74460383  0.50701047    -0.02700
C1576       C  0.02097164  0.73361269  0.97574992     0.04200
N1577       N  0.03776579  0.73532621  0.94820891     0.66700
H1578       H  0.96666792  0.70280373  0.95749518     0.15600
H1579       H  0.04150886  0.76011893  0.55141207     0.15300
N1580       N  0.97098665  0.73093820  0.55894929     0.74400
O1581       O  0.04085331  0.70834424  0.93998324    -0.39100
O1582       O  0.04188056  0.75954437  0.92980720    -0.39000
O1583       O  0.97171682  0.71468985  0.58198644    -0.39700
O1584       O  0.96380538  0.75662739  0.56076392    -0.39800
C1585       C  0.74624161  0.72024466  0.47733808    -0.12100
C1586       C  0.74791872  0.70471066  0.50414357     0.04900
C1587       C  0.72879989  0.70817183  0.52834403    -0.07400
C1588       C  0.71049012  0.72822914  0.52560096    -0.08100
C1589       C  0.70921553  0.74415134  0.49889745    -0.02700
C1590       C  0.72707901  0.73945475  0.47440781     0.04200
N1591       N  0.75198391  0.78171842  0.95888056     0.66700
H1592       H  0.77593335  0.73496569  0.96501018     0.15600
H1593       H  0.69619878  0.73041863  0.54451058     0.15300
N1594       N  0.72581922  0.69007121  0.55553641     0.74400
O1595       O  0.75253955  0.78647291  0.43995838    -0.39100
O1596       O  0.74526072  0.77376441  0.93209481    -0.39000
O1597       O  0.74174431  0.70908771  0.57792567    -0.39700
O1598       O  0.68279077  0.63630012  0.03548370    -0.39800
C1599       C  0.84064626  0.43746971  0.97515827    -0.12100
C1600       C  0.82171588  0.44309229  0.50471475     0.04900
C1601       C  0.81266900  0.41970764  0.52926033    -0.07400
C1602       C  0.81904183  0.39034693  0.52846281    -0.08100
C1603       C  0.83299894  0.38282969  0.50319128    -0.02700
C1604       C  0.84463995  0.40646815  0.97426260     0.04200
N1605       N  0.85437730  0.39688482  0.94710060     0.66700
H1606       H  0.84304721  0.45194510  0.95492739     0.15600
H1607       H  0.80969388  0.37145877  0.54684370     0.15300
N1608       N  0.79307109  0.42250589  0.55371750     0.74400
O1609       O  0.83285799  0.38843295  0.92550856    -0.39100
O1610       O  0.88757425  0.40652526  0.94266936    -0.39000
O1611       O  0.75839369  0.40487013  0.55341337    -0.39700
O1612       O  0.80977951  0.43581420  0.57752115    -0.39800
C1613       C  0.57343071  0.39837790  0.52840040    -0.12100
C1614       C  0.55791823  0.37928231  0.50234689     0.04900
C1615       C  0.57365917  0.39642243  0.47535153    -0.07400
C1616       C  0.60703504  0.42962581  0.47515926    -0.08100
C1617       C  0.62497074  0.44629611  0.50143956    -0.02700
C1618       C  0.60662201  0.43159807  0.52818467     0.04200
N1619       N  0.62108309  0.44978156  0.55543882     0.66700
H1620       H  0.56090790  0.38689123  0.54932977     0.15600
H1621       H  0.61953816  0.44121590  0.45424699     0.15300
N1622       N  0.55666634  0.37886473  0.95127845     0.74400
O1623       O  0.60801054  0.46831715  0.56628831    -0.39100
O1624       O  0.63766150  0.43874673  0.57191494    -0.39000
O1625       O  0.53580494  0.38830957  0.93903852    -0.39700
O1626       O  0.56956791  0.36330708  0.43332482    -0.39800
C1627       C  0.41998647  0.33379981  0.66206497    -0.12100
C1628       C  0.45555037  0.36512149  0.66059461     0.04900
C1629       C  0.47701741  0.36955826  0.63581528    -0.07400
C1630       C  0.46390608  0.34292284  0.61391705    -0.08100
C1631       C  0.42943214  0.31077164  0.61586573    -0.02700
C1632       C  0.40690194  0.30651468  0.64004196     0.04200
N1633       N  0.37182835  0.27408331  0.64345824     0.66700
H1634       H  0.40267690  0.32986994  0.68082133     0.15600
H1635       H  0.48142617  0.34752157  0.59513400     0.15300
N1636       N  0.51126937  0.40216343  0.63116344     0.74400
O1637       O  0.36943403  0.24675543  0.65699152    -0.39100
O1638       O  0.34311555  0.27548618  0.63841792    -0.39000
O1639       O  0.54011192  0.40020929  0.63284140    -0.39700
O1640       O  0.51136216  0.42708803  0.61570669    -0.39800
C1641       C  0.43666002  0.35731411  0.86068360    -0.12100
C1642       C  0.46886562  0.36786102  0.84429842     0.04900
C1643       C  0.48974566  0.35103270  0.85072751    -0.07400
C1644       C  0.47825655  0.32443210  0.87275335    -0.08100
C1645       C  0.44658088  0.31433328  0.88947809    -0.02700
C1646       C  0.42570413  0.33118421  0.88339675     0.04200
N1647       N  0.39512398  0.32423867  0.90134421     0.66700
H1648       H  0.42043420  0.37024979  0.85644581     0.15600
H1649       H  0.49466771  0.31167475  0.87683741     0.15300
N1650       N  0.52239765  0.35990703  0.83493823     0.74400
O1651       O  0.40066198  0.34191908  0.92494072    -0.39100
O1652       O  0.36301209  0.30651910  0.89099967    -0.39000
O1653       O  0.55322475  0.37946740  0.84709021    -0.42400
O1654       O  0.52020892  0.34147846  0.81244274    -0.39800
C1655       C  0.65930152  0.53526947  0.61589900    -0.12100
C1656       C  0.69190391  0.56959760  0.61589428     0.04900
C1657       C  0.69748090  0.59505682  0.63816313    -0.07400
C1658       C  0.67086504  0.58511310  0.66027399    -0.08100
C1659       C  0.63937411  0.54961315  0.66082800    -0.02700
C1660       C  0.63402395  0.52493305  0.63840136     0.04200
N1661       N  0.60202469  0.48948551  0.63716632     0.66700
H1662       H  0.65338662  0.51601436  0.59894657     0.15600
H1663       H  0.67545107  0.60460073  0.67743186     0.15300
N1664       N  0.73038083  0.63010506  0.63952940     0.74400
O1665       O  0.57511139  0.48566530  0.62232827    -0.39100
O1666       O  0.60466600  0.46163672  0.64332597    -0.39000
O1667       O  0.72959288  0.65865015  0.63216921    -0.39700
O1668       O  0.75757413  0.63332151  0.65369590    -0.39800
C1669       C  0.68324438  0.53552214  0.86966975    -0.12100
C1670       C  0.69395797  0.56752990  0.88639595     0.04900
C1671       C  0.67893735  0.58986947  0.87964976    -0.07400
C1672       C  0.65342358  0.57973549  0.85675134    -0.08100
C1673       C  0.64246047  0.54752508  0.84012295    -0.02700
C1674       C  0.65799115  0.52550469  0.84668532     0.04200
N1675       N  0.64930759  0.49345986  0.82983014     0.66700
H1676       H  0.69480208  0.51812187  0.87426731     0.15600
H1677       H  0.64153988  0.59688980  0.85257389     0.15300
N1678       N  0.68750911  0.62163227  0.89682573     0.74400
O1679       O  0.66773091  0.49664802  0.80713503    -0.39100
O1680       O  0.62884652  0.46190207  0.84063657    -0.39000
O1681       O  0.70734396  0.65334274  0.88606745    -0.39700
O1682       O  0.66939287  0.61797404  0.91981012    -0.39800
C1683       C  0.53114965  0.67024637  0.62274146    -0.12100
C1684       C  0.56904864  0.69138821  0.61632921     0.04900
C1685       C  0.59354206  0.68476775  0.63247715    -0.07400
C1686       C  0.57983784  0.65768851  0.65445071    -0.08100
C1687       C  0.54189037  0.63702159  0.66102569    -0.02700
C1688       C  0.51756126  0.64378179  0.64480761     0.04200
N1689       N  0.47898856  0.62458088  0.65041473     0.66700
H1690       H  0.51128090  0.67433348  0.61076121     0.15600
H1691       H  0.59929969  0.65314332  0.66660459     0.15300
N1692       N  0.63217232  0.70517638  0.62717721     0.74400
O1693       O  0.46519790  0.64055057  0.66444389    -0.39100
O1694       O  0.45818606  0.59568437  0.63615805    -0.39000
O1695       O  0.65249570  0.73223652  0.64340440    -0.39700
O1696       O  0.64652319  0.69167029  0.61084136    -0.39800
C1697       C  0.58760607  0.70129825  0.86245510    -0.12100
C1698       C  0.57753549  0.68737944  0.89089189     0.04900
C1699       C  0.55453118  0.64903980  0.89498551    -0.07400
C1700       C  0.53985632  0.62565095  0.87076884    -0.08100
C1701       C  0.54844434  0.63977128  0.84234518    -0.02700
C1702       C  0.57347100  0.67773316  0.83818269     0.04200
N1703       N  0.58290463  0.69309966  0.80942294     0.66700
H1704       H  0.60439269  0.73076897  0.85898445     0.15600
H1705       H  0.52224153  0.59626291  0.87417969     0.15300
N1706       N  0.54600461  0.63352983  0.92375156     0.74400
O1707       O  0.56245670  0.70263648  0.79659389    -0.39100
O1708       O  0.61484284  0.70426208  0.79975338    -0.39000
O1709       O  0.51375779  0.62008185  0.93349631    -0.39700
O1710       O  0.56828069  0.62650910  0.93665509    -0.39800
C1711       C  0.30586163  0.41331015  0.63871355    -0.12100
C1712       C  0.31879806  0.43485981  0.61330522     0.04900
C1713       C  0.35492787  0.46574503  0.61333082    -0.07400
C1714       C  0.37638069  0.47556091  0.63881598    -0.08100
C1715       C  0.36312158  0.45460573  0.66430052    -0.02700
C1716       C  0.32765468  0.42296522  0.66412195     0.04200
N1717       N  0.31235272  0.40198793  0.69022923     0.66700
H1718       H  0.27801688  0.39013225  0.63941968     0.15600
H1719       H  0.40407762  0.49906081  0.63838748     0.15300
N1720       N  0.37067911  0.48719899  0.58750438     0.74400
O1721       O  0.29921389  0.41365726  0.70944294    -0.39100
O1722       O  0.30595929  0.36927273  0.69166341    -0.39000
O1723       O  0.38391992  0.52162414  0.58856259    -0.39700
O1724       O  0.37916378  0.47348688  0.56645925    -0.39800
C1725       C  0.30628258  0.44221905  0.86082751    -0.12100
C1726       C  0.30990363  0.42521856  0.88613642     0.04900
C1727       C  0.34267994  0.42461645  0.89073376    -0.07400
C1728       C  0.36997667  0.43882860  0.86918869    -0.08100
C1729       C  0.36643400  0.45606363  0.84413331    -0.02700
C1730       C  0.33438418  0.45795860  0.83998705     0.04200
N1731       N  0.32960723  0.47493792  0.81454019     0.66700
H1732       H  0.28188286  0.44430982  0.85771217     0.15600
H1733       H  0.39486188  0.43768088  0.87252380     0.15300
N1734       N  0.35014832  0.41272022  0.91793445     0.74400
O1735       O  0.31586379  0.45603270  0.79167381    -0.39100
O1736       O  0.33237863  0.50619488  0.81668512    -0.39000
O1737       O  0.36301080  0.39131643  0.91777815    -0.39700
O1738       O  0.35227662  0.43006860  0.94110561    -0.39800
C1739       C  0.91324799  0.57207468  0.66082350    -0.12100
C1740       C  0.90981918  0.53695976  0.65924690     0.04900
C1741       C  0.89322130  0.51478868  0.63462251    -0.07400
C1742       C  0.87988371  0.52759403  0.61238530    -0.08100
C1743       C  0.88098781  0.56160631  0.61466511    -0.02700
C1744       C  0.89849572  0.58432564  0.63897273     0.04200
N1745       N  0.89952885  0.61858552  0.64277125     0.66700
H1746       H  0.92623055  0.58956054  0.67967278     0.15600
H1747       H  0.86769731  0.51009145  0.59344243     0.15300
N1748       N  0.89004001  0.47943325  0.63157821     0.74400
O1749       O  0.87404289  0.61928769  0.65668454    -0.39100
O1750       O  0.92898737  0.64837075  0.63783677    -0.39000
O1751       O  0.85951455  0.45078073  0.63645621    -0.39700
O1752       O  0.91464890  0.47671429  0.61805410    -0.39800
C1753       C  0.87261113  0.52123659  0.84711008    -0.12100
C1754       C  0.90984195  0.54336311  0.84054590     0.04900
C1755       C  0.92994800  0.57853620  0.85418024    -0.07400
C1756       C  0.91274479  0.58987272  0.87475550    -0.08100
C1757       C  0.87573821  0.56686720  0.88205156    -0.02700
C1758       C  0.85540159  0.53268513  0.86715713     0.04200
N1759       N  0.81676792  0.50933212  0.87156470     0.66700
H1760       H  0.85629761  0.49499524  0.83618058     0.15600
H1761       H  0.92880229  0.61598120  0.88595851     0.15300
N1762       N  0.96818638  0.60248782  0.84845995     0.74400
O1763       O  0.79464544  0.51540787  0.85736613    -0.39100
O1764       O  0.80494735  0.47887408  0.88453127    -0.39000
O1765       O  0.97852355  0.63225578  0.83479640    -0.39700
O1766       O  0.99155157  0.59805465  0.86240257    -0.39800
C1767       C  0.91682775  0.33282679  0.61512061    -0.12100
C1768       C  0.88110305  0.30335768  0.61939390     0.04900
C1769       C  0.86179711  0.30260487  0.64488686    -0.07400
C1770       C  0.87785434  0.33165205  0.66508935    -0.08100
C1771       C  0.91324275  0.36151981  0.66048773    -0.02700
C1772       C  0.93310423  0.36170942  0.63549945     0.04200
N1773       N  0.96876160  0.39237654  0.62941915     0.66700
H1774       H  0.93134671  0.33451436  0.59508032     0.15600
H1775       H  0.86283250  0.33056074  0.68466638     0.15300
N1776       N  0.82571274  0.27244873  0.65048251     0.74400
O1777       O  0.99685430  0.38972874  0.63412599    -0.39100
O1778       O  0.97160269  0.41857367  0.61391879    -0.39000
O1779       O  0.82189823  0.24603426  0.66621678    -0.39700
O1780       O  0.79820002  0.27592225  0.64528569    -0.39800
C1781       C  0.91741194  0.33210259  0.84355472    -0.12100
C1782       C  0.91505247  0.36433268  0.84421107     0.04900
C1783       C  0.89847569  0.37097779  0.86816128    -0.07400
C1784       C  0.88409507  0.34514118  0.89080605    -0.08100
C1785       C  0.88580006  0.31244247  0.89006443    -0.02700
C1786       C  0.90260915  0.30599364  0.86605881     0.04200
N1787       N  0.90219861  0.27198668  0.86289571     0.66700
H1788       H  0.92974244  0.32648372  0.82493439     0.15600
H1789       H  0.87104439  0.35046224  0.90901498     0.15300
N1790       N  0.89713152  0.40426544  0.87019393     0.74400
O1791       O  0.87461236  0.24478071  0.85139780    -0.39100
O1792       O  0.93172606  0.27147096  0.86564542    -0.39000
O1793       O  0.86812600  0.40428288  0.86334048    -0.39700
O1794       O  0.92578722  0.43423792  0.87650175    -0.39800
C1795       C  0.11023888  0.45188565  0.60919613    -0.12100
C1796       C  0.12031309  0.42547843  0.61563536     0.04900
C1797       C  0.11573643  0.41178900  0.64437611    -0.07400
C1798       C  0.10234488  0.42562167  0.66617335    -0.08100
C1799       C  0.09455157  0.45383669  0.65992742    -0.02700
C1800       C  0.09784631  0.46633678  0.63094391     0.04200
N1801       N  0.08878753  0.49364536  0.62299299     0.66700
H1802       H  0.11354061  0.46266363  0.58712467     0.15600
H1803       H  0.09937983  0.41530481  0.68835605     0.15300
N1804       N  0.12757299  0.38653289  0.65232291     0.74400
O1805       O  0.11331588  0.52327255  0.61160341    -0.39100
O1806       O  0.05547112  0.48411822  0.61935233    -0.39000
O1807       O  0.15958508  0.39868720  0.66230226    -0.39700
O1808       O  0.10428539  0.35263687  0.65449122    -0.39800
C1809       C  0.12578727  0.46487437  0.89143403    -0.12100
C1810       C  0.11868519  0.42841153  0.89130403     0.04900
C1811       C  0.09771816  0.40500844  0.86829333    -0.07400
C1812       C  0.08560485  0.41894391  0.84558508    -0.08100
C1813       C  0.09468604  0.45624784  0.84502380    -0.02700
C1814       C  0.11476933  0.47904312  0.86855909     0.04200
N1815       N  0.12375773  0.51648290  0.87032574     0.66700
H1816       H  0.14135177  0.48333200  0.90914745     0.15600
H1817       H  0.06983778  0.40061639  0.82785187     0.15300
N1818       N  0.08998927  0.36784007  0.86678067     0.74400
O1819       O  0.10805165  0.52497453  0.88971712    -0.39100
O1820       O  0.15463052  0.54102133  0.86082803    -0.39000
O1821       O  0.05845043  0.34192279  0.87363707    -0.39700
O1822       O  0.11173061  0.36067655  0.85324956    -0.39800
C1823       C  0.09437989  0.66739703  0.66199312    -0.12100
C1824       C  0.09480505  0.63418414  0.66124521     0.04900
C1825       C  0.10920143  0.62566650  0.63693476    -0.07400
C1826       C  0.12378291  0.65062887  0.61396572    -0.08100
C1827       C  0.12549402  0.68491624  0.61520691    -0.02700
C1828       C  0.10990338  0.69300565  0.63922617     0.04200
N1829       N  0.11119105  0.72753031  0.64156917     0.66700
H1830       H  0.08281365  0.67389471  0.68066149     0.15600
H1831       H  0.13424956  0.64322648  0.59515529     0.15300
N1832       N  0.10819475  0.59128191  0.63498318     0.74400
O1833       O  0.08389660  0.72998404  0.63337825    -0.39100
O1834       O  0.13576693  0.75281587  0.65707938    -0.39000
O1835       O  0.07778009  0.56198680  0.63150058    -0.39700
O1836       O  0.13625575  0.58956846  0.64203484    -0.39800
C1837       C  0.08382272  0.66476345  0.84253688    -0.12100
C1838       C  0.08945023  0.63449139  0.84190715     0.04900
C1839       C  0.10550996  0.62760523  0.86604715    -0.07400
C1840       C  0.11766762  0.65190917  0.88965619    -0.08100
C1841       C  0.11399206  0.68344525  0.88974960    -0.02700
C1842       C  0.09587774  0.68922608  0.86621733     0.04200
N1843       N  0.09116699  0.72055010  0.86511670     0.66700
H1844       H  0.07081861  0.67009218  0.82419531     0.15600
H1845       H  0.13070213  0.64633916  0.90787175     0.15300
N1846       N  0.10855937  0.59538724  0.86722197     0.74400
O1847       O  0.11552431  0.74982435  0.85315985    -0.39100
O1848       O  0.05982548  0.71641737  0.86989729    -0.39000
O1849       O  0.13931691  0.59809879  0.86260000    -0.39700
O1850       O  0.07978642  0.56406472  0.86742607    -0.39800
C1851       C  0.33056384  0.90684635  0.62619766    -0.12100
C1852       C  0.31452041  0.86887742  0.62202483     0.04900
C1853       C  0.32616091  0.84881096  0.63957465    -0.07400
C1854       C  0.35583090  0.86740368  0.65869668    -0.08100
C1855       C  0.37307411  0.90560895  0.66201171    -0.02700
C1856       C  0.35942150  0.92531164  0.64624252     0.04200
N1857       N  0.37530563  0.96425036  0.64951635     0.66700
H1858       H  0.32188987  0.92249783  0.61290992     0.15600
H1859       H  0.36446923  0.85161059  0.67181541     0.15300
N1860       N  0.30705803  0.80935803  0.63924226     0.74400
O1861       O  0.40328569  0.98578220  0.63471168    -0.39100
O1862       O  0.35739590  0.97674203  0.66240443    -0.39000
O1863       O  0.32426159  0.79274000  0.63347715    -0.39700
O1864       O  0.27526898  0.79157744  0.65013397    -0.39800
C1865       C  0.35600116  0.92379318  0.85225714    -0.12100
C1866       C  0.36695033  0.90149885  0.83730206     0.04900
C1867       C  0.34752855  0.86325364  0.84259713    -0.07400
C1868       C  0.31932903  0.84857533  0.86343453    -0.08100
C1869       C  0.30914853  0.87098553  0.87908183    -0.02700
C1870       C  0.32737232  0.90891487  0.87289620     0.04200
N1871       N  0.31852126  0.93298801  0.88829004     0.66700
H1872       H  0.37025396  0.95324564  0.84833123     0.15600
H1873       H  0.30508606  0.81909649  0.86727482     0.15300
N1874       N  0.35456415  0.83858032  0.82608484     0.74400
O1875       O  0.33446327  0.94713464  0.91219230    -0.39100
O1876       O  0.30071385  0.94564157  0.87540971    -0.39000
O1877       O  0.36837632  0.82162617  0.83867047    -0.39700
O1878       O  0.33954576  0.82760655  0.80135238    -0.39800
C1879       C  0.54934095  0.88951244  0.61295886    -0.12100
C1880       C  0.58468092  0.89354022  0.61284491     0.04900
C1881       C  0.60936532  0.91405688  0.63538531    -0.07400
C1882       C  0.59770324  0.92827873  0.65811812    -0.08100
C1883       C  0.56158099  0.92216732  0.65896610    -0.02700
C1884       C  0.53763239  0.90330559  0.63571673     0.04200
N1885       N  0.50168759  0.89874846  0.63445357     0.66700
H1886       H  0.53008975  0.87468940  0.59547413     0.15600
H1887       H  0.61672021  0.94312587  0.67572457     0.15300
N1888       N  0.64551020  0.91919406  0.63645110     0.74400
O1889       O  0.49729274  0.92356958  0.62291348    -0.39100
O1890       O  0.47401197  0.86760541  0.63973720    -0.39000
O1891       O  0.67262554  0.95018811  0.62986442    -0.39700
O1892       O  0.65085837  0.89594834  0.64972523    -0.39800
C1893       C  0.58857728  0.91768158  0.84585141    -0.12100
C1894       C  0.55450157  0.91620333  0.84500224     0.04900
C1895       C  0.52973395  0.89964487  0.86819912    -0.07400
C1896       C  0.53828919  0.88286016  0.89090223    -0.08100
C1897       C  0.57144178  0.88221434  0.89099749    -0.02700
C1898       C  0.59715504  0.90070506  0.86852186     0.04200
N1899       N  0.63086679  0.90040590  0.86724774     0.66700
H1900       H  0.60807967  0.93079258  0.82819201     0.15600
H1901       H  0.51864744  0.87007875  0.90850445     0.15300
N1902       N  0.49640978  0.90079397  0.86943210     0.74400
O1903       O  0.63142085  0.87355772  0.85540306    -0.39100
O1904       O  0.66075358  0.92953282  0.87274272    -0.39000
O1905       O  0.46605784  0.87213216  0.86410498    -0.39700
O1906       O  0.49758820  0.93111273  0.87339540    -0.39800
C1907       C  0.63089903  0.10711241  0.63457817    -0.12100
C1908       C  0.64461591  0.10211958  0.66099523     0.04900
C1909       C  0.68031159  0.10681829  0.66152649    -0.07400
C1910       C  0.70185290  0.11723083  0.63598035    -0.08100
C1911       C  0.68843970  0.12310643  0.60965986    -0.02700
C1912       C  0.65213655  0.11697882  0.60898190     0.04200
N1913       N  0.63598200  0.11968974  0.58222732     0.66700
H1914       H  0.60311312  0.10228233  0.63357905     0.15600
H1915       H  0.72987564  0.12279405  0.63718438     0.15300
N1916       N  0.69616499  0.10393244  0.68835705     0.74400
O1917       O  0.62280798  0.09289830  0.56460396    -0.39100
O1918       O  0.62704979  0.14406573  0.57965463    -0.39000
O1919       O  0.70122451  0.07708119  0.69228779    -0.39700
O1920       O  0.71194517  0.13162798  0.70499631    -0.39800
C1921       C  0.66425546  0.08718641  0.85017086    -0.12100
C1922       C  0.63562646  0.09527617  0.84908570     0.04900
C1923       C  0.63213183  0.11553912  0.87203710    -0.07400
C1924       C  0.65811107  0.12880367  0.89459485    -0.08100
C1925       C  0.68781401  0.12228284  0.89494940    -0.02700
C1926       C  0.69026074  0.10046887  0.87274096     0.04200
N1927       N  0.71987271  0.09319158  0.87166522     0.66700
H1928       H  0.66728560  0.07130770  0.83285303     0.15600
H1929       H  0.65529183  0.14495193  0.91177577     0.15300
N1930       N  0.60201443  0.12207157  0.87333587     0.74400
O1931       O  0.71436082  0.06201663  0.87955959    -0.39100
O1932       O  0.74797397  0.11391554  0.85666170    -0.39000
O1933       O  0.57265643  0.09876104  0.88577565    -0.39700
O1934       O  0.60747832  0.15398241  0.86823935    -0.39800
C1935       C  0.42454751  0.08398763  0.65940100    -0.12100
C1936       C  0.46080104  0.09052976  0.65926903     0.04900
C1937       C  0.48399849  0.11010593  0.63583106    -0.07400
C1938       C  0.47113849  0.12378111  0.61367315    -0.08100
C1939       C  0.43533111  0.11858317  0.61437410    -0.02700
C1940       C  0.41170005  0.09779728  0.63730252     0.04200
N1941       N  0.37543139  0.09214294  0.63951251     0.66700
H1942       H  0.40613633  0.06877454  0.67720623     0.15600
H1943       H  0.48969140  0.13923461  0.59598662     0.15300
N1944       N  0.52015546  0.11532626  0.63367566     0.74400
O1945       O  0.34858838  0.06218988  0.63061416    -0.39100
O1946       O  0.36965113  0.11272572  0.65606651    -0.39000
O1947       O  0.52602208  0.09537574  0.61645125    -0.39700
O1948       O  0.54702026  0.14400032  0.64429055    -0.39800
C1949       C  0.42154231  0.11195504  0.86782389    -0.12100
C1950       C  0.44307740  0.12074119  0.89325008     0.04900
C1951       C  0.47305711  0.11432323  0.89360103    -0.07400
C1952       C  0.48210087  0.10155571  0.86841981    -0.08100
C1953       C  0.46111196  0.09362596  0.84293655    -0.02700
C1954       C  0.43023740  0.09838854  0.84281867     0.04200
N1955       N  0.40894948  0.09198754  0.81682657     0.66700
H1956       H  0.39886582  0.11716225  0.86686018     0.15600
H1957       H  0.50504093  0.09672116  0.86908441     0.15300
N1958       N  0.49411024  0.11956471  0.91956018     0.74400
O1959       O  0.37800179  0.06302440  0.81459310    -0.39100
O1960       O  0.41748172  0.11820052  0.79916602    -0.39000
O1961       O  0.48121663  0.09522203  0.93929408    -0.39700
O1962       O  0.52809648  0.14265694  0.91933300    -0.39800
loop_ 
_geom_bond_atom_site_label_1 
_geom_bond_atom_site_label_2 
_geom_bond_distance 
_geom_bond_site_symmetry_2 
_ccdc_geom_bond_type 
C1           N19   1.360       .  A
C1           C38   1.450       .  S
C1          C972   1.483       .  S
N2           N19   1.329       .  A
N2           N24   1.319       .  A
N2          Co39   2.122       .  S
C3           N28   1.348       .  A
C3           C41   1.471       .  S
C3           H48   1.082       .  S
H4           C45   1.080       .  S
C5           N29   1.331       .  A
C5            C9   1.440       .  S
C5           H34   1.081       .  S
Co6          N24   2.055   1_565  S
Co6          N14   2.051       .  S
Co6          N46   2.042   1_565  S
Co6          N22   2.053       .  S
Co6         Cl50   2.424       .  S
N7           C45   1.344       .  A
N7           N14   1.317       .  A
N7           Co8   2.094       .  S
Co8          N11   2.110       .  S
Co8          N28   2.108       .  S
Co8          N15   2.096       .  S
Co8         Cl50   2.473       .  S
C9           N47   1.357       .  A
C9          C913   1.465       .  S
N10          N17   1.319       .  A
N10          N40   1.321       .  A
N10         Co43   2.069       .  S
N11          N29   1.320       .  A
N11          N47   1.329       .  A
N12          C41   1.339       .  A
N12          N22   1.319       .  A
H13          C38   1.080       .  S
N14          N35   1.316       .  A
N15          N33   1.318       .  A
N15          N20   1.327       .  A
C16          N20   1.356       .  A
C16          C44   1.456       .  S
C16         C902   1.484       .  S
N17          C32   1.344       .  A
N17         Co39   2.100       .  S
C18          N46   1.329       .  A
C18          C21   1.445       .  S
C18          H52   1.080       .  S
C21          N42   1.359       .  A
C21         C955   1.476       .  S
N22          N28   1.319       .  A
N23          C49   1.347       .  A
N23          N25   1.320       .  A
N23         Co39   2.115       .  S
N24          C38   1.335       .  A
N25          N53   1.319       .  A
N25         Co43   2.047       .  S
H26          C49   1.082       .  S
H27          C44   1.080       .  S
N29         Co43   2.044   1_565  S
N30          N42   1.328       .  A
N30          N46   1.317       .  A
N30         Co39   2.106       .  S
C31          N35   1.341       .  A
C31          C45   1.474       .  S
C31         C885   1.478       .  S
C32          C51   1.473       .  S
C32          H36   1.080       .  S
N33          C44   1.332       .  A
N33         Co43   2.064   1_565  S
C37          N53   1.339       .  A
C37          C49   1.474       .  S
C37         C927   1.478       .  S
Co39        Cl50   2.467   1_545  S
N40          C51   1.346       .  A
C41         C874   1.473       .  S
Co43        Cl50   2.426   1_545  S
C51         C941   1.486       .  S
C54          N72   1.356       .  A
C54          C91   1.435       .  S
C54         C857   1.457       .  S
N55          N72   1.329       .  A
N55          N77   1.320       .  A
N55         Co92   2.106       .  S
C56          N81   1.346       .  A
C56          C94   1.473       .  S
C56         H101   1.079       .  S
H57          C98   1.081       .  S
C58          N82   1.331       .  A
C58          C62   1.441       .  S
C58          H87   1.081       .  S
Co59         N77   2.035       .  S
Co59         N67   2.061   1_455  S
Co59         N99   2.044       .  S
Co59         N75   2.061   1_455  S
Co59       Cl103   2.428       .  S
N60          C98   1.349       .  A
N60          N67   1.319       .  A
N60         Co61   2.122       .  S
Co61         N64   2.106       .  S
Co61         N81   2.109       .  S
Co61         N68   2.120       .  S
Co61       Cl103   2.473   1_655  S
C62         N100   1.357       .  A
C62         C801   1.469       .  S
N63          N70   1.319       .  A
N63          N93   1.318       .  A
N63         Co96   2.054       .  S
N64          N82   1.320       .  A
N64         N100   1.330       .  A
N65          C94   1.343       .  A
N65          N75   1.322       .  A
H66          C91   1.081       .  S
N67          N88   1.323       .  A
N68          N86   1.319       .  A
N68          N73   1.329       .  A
C69          N73   1.360       .  A
C69          C97   1.446       .  S
C69         C790   1.475       .  S
N70          C85   1.350       .  A
N70         Co92   2.112       .  S
C71          N99   1.330       .  A
C71          C74   1.439       .  S
C71         H105   1.081       .  S
C74          N95   1.357       .  A
C74         C843   1.465       .  S
N75          N81   1.319       .  A
N76         C102   1.347       .  A
N76          N78   1.318       .  A
N76         Co92   2.104       .  S
N77          C91   1.326       .  A
N78         N106   1.319       .  A
N78         Co96   2.061       .  S
H79         C102   1.080       .  S
H80          C97   1.081       .  S
N82         Co96   2.054   1_655  S
N83          N95   1.329       .  A
N83          N99   1.321       .  A
N83         Co92   2.115       .  S
C84          N88   1.343       .  A
C84          C98   1.478       .  S
C84         C773   1.492       .  S
C85         C104   1.475       .  S
C85          H89   1.081       .  S
N86          C97   1.332       .  A
N86         Co96   2.047   1_655  S
C90         N106   1.344       .  A
C90         C102   1.476       .  S
C90         C818   1.487       .  S
Co92       Cl103   2.475       .  S
N93         C104   1.339       .  A
C94         C759   1.482       .  S
Co96       Cl103   2.418       .  S
C104        C832   1.477       .  S
C107        N125   1.360       .  A
C107        C144   1.447       .  S
C107        C748   1.478       .  S
N108        N125   1.328       .  A
N108        N130   1.319       .  A
N108       Co145   2.116       .  S
C109        N134   1.355       .  A
C109        C147   1.482       .  S
C109        H154   1.081       .  S
H110        C151   1.080       .  S
C111        N135   1.333       .  A
C111        C115   1.450       .  S
C111        H140   1.081       .  S
Co112       N130   2.045       .  S
Co112       N120   2.051       .  S
Co112       N152   2.051       .  S
Co112       N128   2.047       .  S
Co112      Cl156   2.423       .  S
N113        C151   1.345       .  A
N113        N120   1.318       .  A
N113       Co114   2.099       .  S
Co114       N117   2.127       .  S
Co114       N134   2.133       .  S
Co114       N121   2.095       .  S
Co114      Cl156   2.473       .  S
C115        N153   1.361       .  A
C115        C692   1.487       .  S
N116        N123   1.320       .  A
N116        N146   1.321       .  A
N116       Co149   2.059       .  S
N117        N135   1.320       .  A
N117        N153   1.331       .  A
N118        C147   1.337       .  A
N118        N128   1.317       .  A
H119        C144   1.079       .  S
N120        N141   1.318       .  A
N121        N139   1.318       .  A
N121        N126   1.324       .  A
C122        N126   1.356       .  A
C122        C150   1.448       .  S
C122        C678   1.475       .  S
N123        C138   1.346       .  A
N123       Co145   2.108       .  S
C124        N152   1.334       .  A
C124        C127   1.446       .  S
C124        H158   1.081       .  S
C127        N148   1.358       .  A
C127        C734   1.473       .  S
N128        N134   1.320       .  A
N129        C155   1.349       .  A
N129        N131   1.320       .  A
N129       Co145   2.116       .  S
N130        C144   1.331       .  A
N131        N159   1.316       .  A
N131       Co149   2.045       .  S
H132        C155   1.080       .  S
H133        C150   1.082       .  S
N135       Co149   2.056       .  S
N136        N148   1.328       .  A
N136        N152   1.318       .  A
N136       Co145   2.107       .  S
C137        N141   1.342       .  A
C137        C151   1.474       .  S
C137        C661   1.480       .  S
C138        C157   1.469       .  S
C138        H142   1.081       .  S
N139        C150   1.336       .  A
N139       Co149   2.055       .  S
C143        N159   1.339       .  A
C143        C155   1.477       .  S
C143        C706   1.479       .  S
Co145      Cl156   2.470       .  S
N146        C157   1.342       .  A
C147        C647   1.486       .  S
Co149      Cl156   2.430       .  S
C157        C720   1.477       .  S
C160        N178   1.346       .  A
C160        C619   1.473       .  S
C160       C1178   1.462   1_554  S
N161        N178   1.320       .  A
N161       N1164   1.313   1_554  A
N161       Co198   2.057       .  S
C162        N187   1.355       .  A
C162        C200   1.484       .  S
C162        H207   1.080       .  S
H163        C204   1.081       .  S
C164        N188   1.337       .  A
C164       C1149   1.462       .  S
C164        H193   1.078       .  S
Co165       N183   2.061       .  S
Co165       N173   2.051       .  S
Co165       N205   2.067       .  S
Co165       N181   2.041       .  S
Co165     Cl1190   2.433       .  S
N166        C204   1.357       .  A
N166        N173   1.321       .  A
N166       Co167   2.137       .  S
Co167       N170   2.120       .  S
Co167       N187   2.123       .  S
Co167       N174   2.121       .  S
Co167     Cl1190   2.461       .  S
C168        N206   1.358       .  A
C168       C1145   1.461       .  S
C168       C1572   1.495       .  S
N169        N176   1.318       .  A
N169        N199   1.336       .  A
N169       Co202   2.127       .  S
N170        N206   1.330       .  A
N170       N1169   1.323       .  A
N171        C200   1.339       .  A
N171        N181   1.313       .  A
H172        C197   1.081       .  S
N173        N194   1.316       .  A
N174        N179   1.329       .  A
N174       N1173   1.323       .  A
C175       N1160   1.355   1_554  A
C175        C203   1.464       .  S
C175        C605   1.495       .  S
N176        C191   1.325       .  A
N176       Co198   2.047       .  S
C177        N205   1.337       .  A
C177       C1161   1.463       .  S
C177        H211   1.080       .  S
N179       C1156   1.358       .  A
C180        N201   1.349       .  A
C180        C636   1.474       .  S
C180       C1158   1.461   1_554  S
N181        N187   1.317       .  A
N182        C208   1.321       .  A
N182        N184   1.315       .  A
N182       Co198   2.033       .  S
N183        C197   1.337       .  A
N183       N1142   1.313       .  A
N184        N212   1.332       .  A
N184       Co202   2.104       .  S
H185        C208   1.075       .  S
H186        C203   1.081       .  S
N188       N1151   1.323   1_554  A
N188       Co202   2.085       .  S
N189        N201   1.322       .  A
N189       N1186   1.313   1_554  A
N189       Co198   2.067       .  S
C190        N194   1.339       .  A
C190        C204   1.483       .  S
C190        C776   1.492       .  S
C191        C210   1.447       .  S
C191        H195   1.081       .  S
N192        C203   1.345       .  A
N192       N1155   1.325   1_554  A
N192       Co202   2.103       .  S
C196        N212   1.360       .  A
C196        C208   1.450       .  S
C196        C675   1.482       .  S
C197       C1141   1.459       .  S
Co198      Cl209   2.435       .  S
N199        C210   1.364       .  A
C200        C689   1.490       .  S
Co202      Cl209   2.460       .  S
N205       N1170   1.312       .  A
Cl209     Co1146   2.430   1_554  S
Cl209     Co1148   2.466   1_554  S
C210        C762   1.489       .  S
C213        N231   1.345       .  A
C213        C577   1.470       .  S
C213       C1231   1.463   1_554  S
N214        N231   1.316       .  A
N214       N1217   1.311   1_554  A
N214       Co251   2.053       .  S
C215        N240   1.352       .  A
C215        C253   1.478       .  S
C215        H260   1.081       .  S
H216        C257   1.081       .  S
C217        N241   1.343       .  A
C217       C1202   1.466       .  S
C217        H246   1.081       .  S
Co218       N236   2.063       .  S
Co218       N226   2.053       .  S
Co218       N258   2.063       .  S
Co218       N234   2.042       .  S
Co218     Cl1243   2.444       .  S
N219        C257   1.353       .  A
N219        N226   1.319       .  A
N219       Co220   2.118       .  S
Co220       N223   2.105       .  S
Co220       N240   2.122       .  S
Co220       N227   2.106       .  S
Co220     Cl1243   2.461       .  S
C221        N259   1.354       .  A
C221        C549   1.490       .  S
C221       C1198   1.461       .  S
N222        N229   1.319       .  A
N222        N252   1.334       .  A
N222       Co255   2.130       .  S
N223        N259   1.329       .  A
N223       N1222   1.324       .  A
N224        C253   1.337       .  A
N224        N234   1.316       .  A
H225        C250   1.079       .  S
N226        N247   1.315       .  A
N227        N232   1.329       .  A
N227       N1226   1.326       .  A
C228       N1213   1.355   1_554  A
C228        C256   1.468       .  S
C228        C563   1.501       .  S
N229        C244   1.328       .  A
N229       Co251   2.052       .  S
C230        N258   1.338       .  A
C230       C1214   1.462       .  S
C230        H264   1.079       .  S
N232       C1209   1.353       .  A
C233        N254   1.355   1_556  A
C233        C622   1.475   1_556  S
C233       C1211   1.458       .  S
N234        N240   1.318       .  A
N235        C261   1.328       .  A
N235        N237   1.319       .  A
N235       Co251   2.036       .  S
N236        C250   1.343       .  A
N236       N1195   1.311       .  A
N237        N265   1.331       .  A
N237       Co255   2.113       .  S
H238        C261   1.082       .  S
H239        C256   1.081       .  S
N241       N1204   1.322   1_554  A
N241       Co255   2.096       .  S
N242        N254   1.321       .  A
N242       N1239   1.313   1_554  A
N242       Co251   2.076       .  S
C243        N247   1.341       .  A
C243        C257   1.478       .  S
C243        C944   1.485       .  S
C244        C263   1.446       .  S
C244        H248   1.079       .  S
N245        C256   1.341       .  A
N245       N1208   1.325   1_554  A
N245       Co255   2.110       .  S
C249        N265   1.357       .  A
C249        C261   1.440       .  S
C249        C787   1.465       .  S
C250       C1194   1.466       .  S
Co251      Cl262   2.432       .  S
N252        C263   1.365       .  A
C253        C804   1.478       .  S
Co255      Cl262   2.455       .  S
N258       N1223   1.313       .  A
Cl262     Co1199   2.434   1_554  S
Cl262     Co1201   2.463   1_554  S
C263        C930   1.488       .  S
C266        N284   1.351   1_556  A
C266        C535   1.476       .  S
C266       C1284   1.462       .  S
N267        N284   1.318       .  A
N267       N1270   1.312   1_554  A
N267       Co304   2.066       .  S
C268        N293   1.350       .  A
C268        C306   1.474       .  S
C268        H313   1.081       .  S
H269        C310   1.081       .  S
C270        N294   1.339       .  A
C270       C1255   1.457   1_554  S
C270        H299   1.081       .  S
Co271       N289   2.053       .  S
Co271       N279   2.033       .  S
Co271       N311   2.055       .  S
Co271       N287   2.034       .  S
Co271     Cl1296   2.420       .  S
N272        C310   1.356       .  A
N272        N279   1.316       .  A
N272       Co273   2.109       .  S
Co273       N276   2.103       .  S
Co273       N293   2.109       .  S
Co273       N280   2.095       .  S
Co273     Cl1296   2.464       .  S
C274        N312   1.354       .  A
C274        C507   1.488       .  S
C274       C1251   1.463       .  S
N275        N282   1.318       .  A
N275        N305   1.332       .  A
N275       Co308   2.119       .  S
N276        N312   1.326       .  A
N276       N1275   1.323       .  A
N277        C306   1.335       .  A
N277        N287   1.312       .  A
H278        C303   1.077       .  S
N279        N300   1.307       .  A
N280        N285   1.328       .  A
N280       N1279   1.323       .  A
C281       N1266   1.352   1_554  A
C281        C309   1.467       .  S
C281        C594   1.495       .  S
N282        C297   1.325       .  A
N282       Co304   2.031       .  S
C283        N311   1.336       .  A
C283       C1267   1.461       .  S
C283        H317   1.081       .  S
N285       C1262   1.351       .  A
C286        N307   1.341       .  A
C286        C524   1.466       .  S
C286       C1264   1.464   1_554  S
N287        N293   1.318       .  A
N288        C314   1.326       .  A
N288        N290   1.318       .  A
N288       Co304   2.045       .  S
N289        C303   1.336       .  A
N289       N1248   1.311       .  A
N290        N318   1.332       .  A
N290       Co308   2.112       .  S
H291        C314   1.081       .  S
H292        C309   1.081       .  S
N294       N1257   1.325   1_554  A
N294       Co308   2.092       .  S
N295        N307   1.317       .  A
N295       N1292   1.311   1_554  A
N295       Co304   2.040       .  S
C296        N300   1.334       .  A
C296        C310   1.482       .  S
C296        C888   1.479       .  S
C297        C316   1.439       .  S
C297        H301   1.081       .  S
N298        C309   1.342       .  A
N298       N1261   1.324   1_554  A
N298       Co308   2.101       .  S
C302        N318   1.361       .  A
C302        C314   1.442       .  S
C302        C846   1.476       .  S
C303       C1247   1.459       .  S
Co304      Cl315   2.421   1_554  S
N305        C316   1.360       .  A
C306        C860   1.465       .  S
Co308      Cl315   2.464   1_554  S
N311       N1276   1.311       .  A
Cl315     Co1252   2.435       .  S
Cl315     Co1254   2.457       .  S
C316        C871   1.470       .  S
C319        N337   1.362       .  A
C319        C356   1.441       .  S
C319        C916   1.477       .  S
N320        N337   1.333       .  A
N320        N342   1.316       .  A
N320       Co357   2.121       .  S
C321        N346   1.340       .  A
C321        C359   1.464       .  S
C321        H366   1.078       .  S
H322        C363   1.078       .  S
C323        N347   1.353       .  A
C323        C327   1.481       .  S
C323        H352   1.080       .  S
Co324       N342   2.027       .  S
Co324       N332   2.065       .  S
Co324       N364   2.050       .  S
Co324       N340   2.038       .  S
Co324     Cl1349   2.420       .  S
N325        C363   1.337       .  A
N325       N1313   1.312   1_554  A
N325       Co326   2.059       .  S
Co326       N329   2.045       .  S
Co326       N346   2.064       .  S
Co326       N333   2.035       .  S
Co326      Cl368   2.433       .  S
C327        N365   1.339       .  A
C327        C899   1.485       .  S
N328        N358   1.328       .  A
N328       N1316   1.323   1_554  A
N328       Co361   2.106       .  S
N329        N347   1.319       .  A
N329        N365   1.314       .  A
N330       C1340   1.342       .  A
N330        N340   1.311       .  A
H331        C356   1.081       .  S
N332        N353   1.318       .  A
N332       N1306   1.311       .  A
N333        N351   1.317       .  A
N333        N338   1.311       .  A
C334        N338   1.336       .  A
C334        C362   1.483       .  S
C334        C703   1.483       .  S
N335        C350   1.342       .  A
N335       N1309   1.325       .  A
N335       Co357   2.098       .  S
C336        N364   1.330       .  A
C336        C339   1.448       .  S
C336        H370   1.079       .  S
C339        N360   1.363       .  A
C339        C717   1.483       .  S
N340       N1327   1.310       .  A
N341        C367   1.343       .  A
N341       N1324   1.323       .  A
N341       Co357   2.095       .  S
N342        C356   1.324       .  A
N343        N371   1.329       .  A
N343       N1322   1.324   1_554  A
N343       Co361   2.117       .  S
H344        C367   1.079       .  S
H345        C362   1.080       .  S
N346       N1321   1.312   1_554  A
N347       Co361   2.122       .  S
N348        N360   1.331       .  A
N348        N364   1.317       .  A
N348       Co357   2.118       .  S
C349       N1334   1.351   1_554  A
C349        C363   1.463       .  S
C349        C538   1.478   1_554  S
C350        C369   1.461       .  S
C350        H354   1.081       .  S
N351        C362   1.354       .  A
N351       Co361   2.119       .  S
N353       C1330   1.350       .  A
C355        N371   1.356       .  A
C355        C608   1.493       .  S
C355       C1348   1.462   1_554  S
Co357     Cl1349   2.461       .  S
N358       C1350   1.354       .  A
C359       N1311   1.348   1_554  A
C359        C493   1.475   1_554  S
Co361      Cl368   2.462       .  S
C367       C1336   1.465       .  S
Cl368     Co1305   2.433   1_554  S
Cl368     Co1338   2.461   1_554  S
C369       N1339   1.352       .  A
C369        C552   1.487       .  S
C372        N390   1.348   1_556  A
C372        C521   1.470   1_556  S
C372       C1390   1.462       .  S
N373        N390   1.319       .  A
N373       N1376   1.312   1_554  A
N373       Co410   2.058       .  S
C374        N399   1.350       .  A
C374        C412   1.477       .  S
C374        H419   1.081       .  S
H375        C416   1.081       .  S
C376        N400   1.343       .  A
C376       C1361   1.472       .  S
C376        H405   1.078       .  S
Co377       N395   2.049       .  S
Co377       N385   2.032       .  S
Co377       N417   2.044       .  S
Co377       N393   2.045       .  S
Co377     Cl1402   2.428       .  S
N378        C416   1.357       .  A
N378        N385   1.317       .  A
N378       Co379   2.128       .  S
Co379       N382   2.108       .  S
Co379       N399   2.113       .  S
Co379       N386   2.104       .  S
Co379     Cl1402   2.461       .  S
C380        N418   1.354       .  A
C380       C1357   1.467       .  S
C380       C1547   1.495       .  S
N381        N388   1.318       .  A
N381        N411   1.336       .  A
N381       Co414   2.125       .  S
N382        N418   1.327       .  A
N382       N1381   1.325       .  A
N383        C412   1.339       .  A
N383        N393   1.316       .  A
H384        C409   1.078       .  S
N385        N406   1.312       .  A
N386        N391   1.328       .  A
N386       N1385   1.325       .  A
C387       N1372   1.352   1_554  A
C387        C415   1.463       .  S
C387        C482   1.489   1_554  S
N388        C403   1.325       .  A
N388       Co410   2.044       .  S
C389        N417   1.332       .  A
C389       C1373   1.455       .  S
C389        H423   1.076       .  S
N391       C1368   1.352       .  A
C392        N413   1.351   1_556  A
C392        C496   1.474       .  S
C392       C1370   1.459       .  S
N393        N399   1.318       .  A
N394        C420   1.326       .  A
N394        N396   1.317       .  A
N394       Co410   2.041       .  S
N395        C409   1.334       .  A
N395       N1354   1.312       .  A
N396        N424   1.333       .  A
N396       Co414   2.126       .  S
H397        C420   1.079       .  S
H398        C415   1.081       .  S
N400       N1363   1.324   1_554  A
N400       Co414   2.109       .  S
N401        N413   1.320       .  A
N401       N1398   1.311   1_554  A
N401       Co410   2.065       .  S
C402        N406   1.334       .  A
C402        C416   1.482       .  S
C402        C829   1.476       .  S
C403        C422   1.443       .  S
C403        H407   1.081       .  S
N404        C415   1.342       .  A
N404       N1367   1.324   1_554  A
N404       Co414   2.101       .  S
C408        N424   1.365       .  A
C408        C420   1.448       .  S
C408        C731   1.487       .  S
C409       C1353   1.459       .  S
Co410      Cl421   2.427       .  S
N411        C422   1.364       .  A
C412        C745   1.482       .  S
Co414      Cl421   2.462       .  S
N417       N1382   1.312       .  A
Cl421     Co1358   2.431   1_554  S
Cl421     Co1360   2.462   1_554  S
C422        C815   1.484       .  S
C425        N443   1.364       .  A
C425        C462   1.452       .  S
C425        C969   1.491       .  S
N426        N443   1.332       .  A
N426        N448   1.317       .  A
N426       Co463   2.127       .  S
C427        N452   1.341       .  A
C427        C465   1.466       .  S
C427        H472   1.081       .  S
H428        C469   1.077       .  S
C429        N453   1.352       .  A
C429        C433   1.478       .  S
C429        H458   1.080       .  S
Co430       N448   2.050       .  S
Co430       N438   2.052       .  S
Co430       N470   2.033       .  S
Co430       N446   2.054       .  S
Co430     Cl1455   2.434       .  S
N431        C469   1.335       .  A
N431       N1419   1.312   1_554  A
N431       Co432   2.052       .  S
Co432       N435   2.044       .  S
Co432       N452   2.070       .  S
Co432       N439   2.034       .  S
Co432      Cl474   2.429       .  S
C433        N471   1.338       .  A
C433        C958   1.480       .  S
N434        N464   1.327       .  A
N434       N1422   1.324   1_554  A
N434       Co467   2.106       .  S
N435        N453   1.317       .  A
N435        N471   1.312       .  A
N436       C1446   1.345       .  A
N436        N446   1.319       .  A
H437        C462   1.078       .  S
N438        N459   1.319       .  A
N438       N1412   1.311       .  A
N439        N457   1.318       .  A
N439        N444   1.310       .  A
C440        N444   1.336       .  A
C440        C468   1.481       .  S
C440        C650   1.479       .  S
N441        C456   1.340       .  A
N441       N1415   1.323       .  A
N441       Co463   2.087       .  S
C442        N470   1.323       .  A
C442        C445   1.441       .  S
C442        H476   1.081       .  S
C445        N466   1.363       .  A
C445        C664   1.477       .  S
N446       N1433   1.313       .  A
N447        C473   1.344       .  A
N447       N1430   1.326       .  A
N447       Co463   2.108       .  S
N448        C462   1.330       .  A
N449        N477   1.325       .  A
N449       N1428   1.324   1_554  A
N449       Co467   2.091       .  S
H450        C473   1.082       .  S
H451        C468   1.081       .  S
N452       N1427   1.313   1_554  A
N453       Co467   2.106       .  S
N454        N466   1.334       .  A
N454        N470   1.316       .  A
N454       Co463   2.118       .  S
C455       N1440   1.351   1_554  A
C455        C469   1.457       .  S
C455        C580   1.469       .  S
C456        C475   1.461       .  S
C456        H460   1.080       .  S
N457        C468   1.358       .  A
N457       Co467   2.127       .  S
N459       C1436   1.347       .  A
C461        N477   1.350   1_556  A
C461        C479   1.492       .  S
C461       C1454   1.469       .  S
Co463     Cl1455   2.459       .  S
N464       C1456   1.354   1_554  A
C465       N1417   1.343   1_554  A
C465        C633   1.471       .  S
Co467      Cl474   2.466       .  S
C473       C1442   1.464       .  S
Cl474     Co1411   2.433   1_554  S
Cl474     Co1444   2.457   1_554  S
C475       N1445   1.353       .  A
C475        C510   1.484       .  S
C478        H485   1.082       .  S
C478        C479   1.405       .  A
C478        C483   1.405       .  A
C479        C480   1.416   1_556  A
C480        C481   1.403       .  A
C480        N487   1.429       .  S
C481        H486   1.083       .  S
C481        C482   1.403   1_554  A
C482        C483   1.414       .  A
C483        N484   1.429       .  S
N484        O489   1.262       .  A
N484       O1469   1.261       .  A
N487       O1471   1.262       .  A
N487        O491   1.262       .  A
O488       N1465   1.262       .  A
O490       N1468   1.262       .  A
C492        H499   1.080       .  S
C492        C497   1.384       .  A
C492       C1474   1.405       .  A
C493        C494   1.410   1_556  A
C493       C1473   1.404       .  A
C494        C495   1.394       .  A
C494        N501   1.428       .  S
C495        H500   1.082       .  S
C495        C496   1.403   1_554  A
C496       C1478   1.412       .  A
C497       C1477   1.406       .  A
C497        N498   1.430       .  S
N498       O1484   1.262       .  A
N498        O502   1.262       .  A
N501        O504   1.262       .  A
N501        O505   1.262       .  A
O503       N1479   1.262       .  A
C506        H513   1.084       .  S
C506        C511   1.404   1_565  A
C506       C1488   1.402       .  A
C507        C508   1.415       .  A
C507       C1487   1.404       .  A
C508        C509   1.401   1_565  A
C508        N515   1.428       .  S
C509        H514   1.084       .  S
C509        C510   1.402       .  A
C510       C1492   1.413       .  A
C511       C1491   1.415       .  A
C511        N512   1.430       .  S
N512        O517   1.262       .  A
N512       O1497   1.262       .  A
N515        O518   1.262       .  A
N515       O1500   1.262       .  A
O516       N1493   1.262       .  A
O519       N1496   1.262       .  A
C520        H527   1.084       .  S
C520        C521   1.402       .  A
C520        C525   1.392       .  A
C521       C1503   1.409   1_554  A
C522        C523   1.393       .  A
C522       C1502   1.414       .  A
C522        N529   1.429       .  S
C523        H528   1.082       .  S
C523       C1505   1.400       .  A
C524        C525   1.414       .  A
C524       C1504   1.398   1_554  A
C525        N526   1.431       .  S
N526       O1512   1.262       .  A
N526        O530   1.262       .  A
N529       O1513   1.262       .  A
N529        O533   1.263       .  A
O531       N1507   1.262       .  A
O532       N1510   1.262       .  A
C534        H541   1.084       .  S
C534        C535   1.402   1_554  A
C534        C539   1.392       .  A
C535       C1517   1.413       .  A
C536        C537   1.394       .  A
C536       C1516   1.413       .  A
C536        N543   1.428       .  S
C537        H542   1.084       .  S
C537       C1519   1.404       .  A
C538        C539   1.412   1_556  A
C538       C1518   1.405       .  A
C539        N540   1.428       .  S
N540        O545   1.262       .  A
N540        O544   1.262       .  A
N543        O546   1.262       .  A
N543        O547   1.262       .  A
C548        H555   1.082       .  S
C548        C549   1.405       .  A
C548        C553   1.400   1_545  A
C549       C1531   1.413       .  A
C550        C551   1.403   1_545  A
C550       C1530   1.414   1_556  A
C550        N557   1.427       .  S
C551        H556   1.081       .  S
C551       C1533   1.405   1_556  A
C552        C553   1.411       .  A
C552       C1532   1.405       .  A
C553        N554   1.428       .  S
N554       O1540   1.262       .  A
N554        O558   1.261       .  A
N557       O1541   1.262       .  A
N557        O561   1.261       .  A
O559       N1535   1.259       .  A
O560       N1538   1.262       .  A
C562        H569   1.081       .  S
C562        C563   1.404       .  A
C562        C567   1.404   1_655  A
C563       C1545   1.415   1_554  A
C564        C565   1.407   1_655  A
C564       C1544   1.414       .  A
C564        N571   1.429       .  S
C565        H570   1.083       .  S
C565       C1547   1.408       .  A
C566       C1361   1.506       .  S
C566        C567   1.417       .  A
C566       C1546   1.410   1_554  A
C567        N568   1.425       .  S
N568        O573   1.262       .  A
N568        O572   1.261       .  A
N571        O574   1.262       .  A
N571        O575   1.262       .  A
C576        H583   1.079       .  S
C576        C577   1.403       .  A
C576        C581   1.390       .  A
C577        C578   1.408   1_554  A
C578        C579   1.395       .  A
C578        N585   1.427       .  S
C579       H1565   1.074       .  S
C579        C580   1.402   1_556  A
C580        C581   1.409       .  A
C581        N582   1.428       .  S
N582       O1568   1.262       .  A
N582        O586   1.262       .  A
H584       C1560   1.080       .  S
N585        O588   1.262       .  A
N585       O1570   1.262       .  A
O587       N1563   1.262       .  A
O589       N1566   1.262       .  A
C590        H597   1.084       .  S
C590        C595   1.407   1_655  A
C590       C1572   1.406       .  A
C591       C1149   1.498       .  S
C591        C592   1.418       .  A
C591       C1571   1.406   1_554  A
C592        C593   1.401   1_655  A
C592        N599   1.428       .  S
C593        H598   1.082       .  S
C593        C594   1.402       .  A
C594       C1576   1.415   1_554  A
C595       C1575   1.414       .  A
C595        N596   1.429       .  S
N596        O601   1.262       .  A
N596        O600   1.262       .  A
N599        O602   1.262       .  A
N599        O603   1.262       .  A
C604       H1592   1.084       .  S
C604        C605   1.404   1_556  A
C604        C609   1.408       .  A
C605        C606   1.415       .  A
C606        C607   1.407       .  A
C606        N613   1.428       .  S
C607        H612   1.084       .  S
C607        C608   1.403       .  A
C608        C609   1.415   1_554  A
C609       N1591   1.429       .  S
N610       C1590   1.427       .  S
N610        O615   1.262       .  A
N610       O1595   1.262       .  A
H611       C1585   1.084       .  S
N613        O616   1.261       .  A
N613       O1598   1.262       .  A
O614       N1591   1.262       .  A
O617       N1594   1.262       .  A
C618        H625   1.083       .  S
C618        C623   1.396       .  A
C618       C1600   1.401       .  A
C619        C620   1.412       .  A
C619       C1599   1.401   1_554  A
C620        C621   1.391       .  A
C620        N627   1.426       .  S
C621        H626   1.084       .  S
C621        C622   1.398       .  A
C622       C1604   1.413   1_554  A
C623       C1603   1.411       .  A
C623        N624   1.429       .  S
N624        O629   1.262       .  A
N624        O628   1.262       .  A
N627        O630   1.262       .  A
N627        O631   1.260       .  A
C632        H639   1.082       .  S
C632        C633   1.401       .  A
C632        C637   1.395       .  A
C633        C634   1.414   1_554  A
C634        C635   1.392       .  A
C634       N1622   1.430       .  S
C635        H640   1.081       .  S
C635        C636   1.401   1_556  A
C636        C637   1.411       .  A
C637        N638   1.427       .  S
N638        O643   1.262       .  A
N638        O642   1.261       .  A
N641       C1615   1.430       .  S
N641        O644   1.262       .  A
N641       O1626   1.262       .  A
O645       N1622   1.262       .  A
C646        H653   1.083       .  S
C646        C647   1.414       .  A
C646        C651   1.408       .  A
C647        C648   1.402       .  A
C648        C649   1.393       .  A
C648        N655   1.420       .  S
C649        H654   1.085       .  S
C649        C650   1.404       .  A
C650        C651   1.405       .  A
C651        N652   1.427       .  S
N652        O657   1.262       .  A
N652        O656   1.262       .  A
N655        O658   1.262       .  A
N655        O659   1.262       .  A
C660        H667   1.084       .  S
C660        C661   1.412       .  A
C660        C665   1.403       .  A
C661        C662   1.406       .  A
C662        C663   1.394       .  A
C662        N669   1.428       .  S
C663        H668   1.083       .  S
C663        C664   1.408       .  A
C664        C665   1.403       .  A
C665        N666   1.428       .  S
N666        O671   1.262       .  A
N666        O670   1.262       .  A
N669        O672   1.262       .  A
N669        O673   1.262       .  A
C674        H681   1.055       .  S
C674        C675   1.407       .  A
C674        C679   1.386       .  A
C675        C676   1.410       .  A
C676        C677   1.408       .  A
C676        N683   1.428       .  S
C677        H682   1.076       .  S
C677        C678   1.408       .  A
C678        C679   1.397       .  A
C679        N680   1.422       .  S
N680        O685   1.262       .  A
N680        O684   1.259       .  A
N683        O686   1.261       .  A
N683        O687   1.262       .  A
C688        H695   1.083       .  S
C688        C689   1.413       .  A
C688        C693   1.397       .  A
C689        C690   1.408       .  A
C690        C691   1.406       .  A
C690        N697   1.428       .  S
C691        H696   1.082       .  S
C691        C692   1.413       .  A
C692        C693   1.404       .  A
C693        N694   1.429       .  S
N694        O699   1.262       .  A
N694        O698   1.262       .  A
N697        O700   1.262       .  A
N697        O701   1.262       .  A
C702        H709   1.083       .  S
C702        C703   1.412       .  A
C702        C707   1.396       .  A
C703        C704   1.405       .  A
C704        C705   1.402       .  A
C704        N711   1.428       .  S
C705        H710   1.083       .  S
C705        C706   1.412       .  A
C706        C707   1.403       .  A
C707        N708   1.429       .  S
N708        O713   1.262       .  A
N708        O712   1.262       .  A
N711        O714   1.262       .  A
N711        O715   1.262       .  A
C716        H723   1.084       .  S
C716        C717   1.401       .  A
C716        C721   1.402       .  A
C717        C718   1.420       .  A
C718        C719   1.399       .  A
C718        N725   1.431       .  S
C719        H724   1.084       .  S
C719        C720   1.396       .  A
C720        C721   1.414       .  A
C721        N722   1.429       .  S
N722        O727   1.262       .  A
N722        O726   1.262       .  A
N725        O728   1.262       .  A
N725        O729   1.262       .  A
C730        H737   1.084       .  S
C730        C731   1.402       .  A
C730        C735   1.404       .  A
C731        C732   1.421       .  A
C732        C733   1.396       .  A
C732        N739   1.429       .  S
C733        H738   1.084       .  S
C733        C734   1.392       .  A
C734        C735   1.415       .  A
C735        N736   1.429       .  S
N736        O741   1.262       .  A
N736        O740   1.262       .  A
N739        O742   1.263       .  A
N739        O743   1.262       .  A
C744        H751   1.083       .  S
C744        C745   1.399       .  A
C744        C749   1.402       .  A
C745        C746   1.419       .  A
C746        C747   1.395       .  A
C746        N753   1.427       .  S
C747        H752   1.084       .  S
C747        C748   1.394       .  A
C748        C749   1.419       .  A
C749        N750   1.429       .  S
N750        O755   1.262       .  A
N750        O754   1.262       .  A
N753        O756   1.262       .  A
N753        O757   1.262       .  A
C758        H765   1.078       .  S
C758        C759   1.412       .  A
C758        C763   1.410       .  A
C759        C760   1.403       .  A
C760        C761   1.397       .  A
C760        N767   1.430       .  S
C761        H766   1.056       .  S
C761        C762   1.409       .  A
C762        C763   1.407       .  A
C763        N764   1.427       .  S
N764        O769   1.262       .  A
N764        O768   1.261       .  A
N767        O770   1.262       .  A
N767        O771   1.262       .  A
C772        H779   1.083       .  S
C772        C773   1.397       .  A
C772        C777   1.400       .  A
C773        C774   1.421       .  A
C774        C775   1.410       .  A
C774        N781   1.429       .  S
C775        H780   1.083       .  S
C775        C776   1.401       .  A
C776        C777   1.420       .  A
C777        N778   1.429       .  S
N778        O783   1.262       .  A
N778        O782   1.262       .  A
N781        O784   1.262       .  A
N781        O785   1.262       .  A
C786        H793   1.084       .  S
C786        C787   1.394       .  A
C786        C791   1.399       .  A
C787        C788   1.411       .  A
C788        C789   1.399       .  A
C788        N795   1.429       .  S
C789        H794   1.084       .  S
C789        C790   1.399       .  A
C790        C791   1.417       .  A
C791        N792   1.427       .  S
N792        O797   1.262       .  A
N792        O796   1.261       .  A
N795        O798   1.262       .  A
N795        O799   1.262       .  A
C800        H807   1.084       .  S
C800        C801   1.405       .  A
C800        C805   1.400       .  A
C801        C802   1.402       .  A
C802        C803   1.400       .  A
C802        N809   1.430       .  S
C803        H808   1.084       .  S
C803        C804   1.411       .  A
C804        C805   1.407       .  A
C805        N806   1.428       .  S
N806        O811   1.262       .  A
N806        O810   1.262       .  A
N809        O812   1.262       .  A
N809        O813   1.262       .  A
C814        H821   1.082       .  S
C814        C815   1.409       .  A
C814        C819   1.398       .  A
C815        C816   1.404       .  A
C816        C817   1.404       .  A
C816        N823   1.426       .  S
C817        H822   1.078       .  S
C817        C818   1.410       .  A
C818        C819   1.407       .  A
C819        N820   1.427       .  S
N820        O825   1.262       .  A
N820        O824   1.262       .  A
N823        O826   1.262       .  A
N823        O827   1.262       .  A
C828        H835   1.084       .  S
C828        C829   1.409       .  A
C828        C833   1.399       .  A
C829        C830   1.404       .  A
C830        C831   1.405       .  A
C830        N837   1.428       .  S
C831        H836   1.084       .  S
C831        C832   1.410       .  A
C832        C833   1.405       .  A
C833        N834   1.429       .  S
N834        O839   1.262       .  A
N834        O838   1.262       .  A
N837        O840   1.262       .  A
N837        O841   1.262       .  A
C842        H849   1.084       .  S
C842        C843   1.405       .  A
C842        C847   1.400       .  A
C843        C844   1.400       .  A
C844        C845   1.396       .  A
C844        N851   1.430       .  S
C845        H850   1.084       .  S
C845        C846   1.410       .  A
C846        C847   1.407       .  A
C847        N848   1.428       .  S
N848        O853   1.262       .  A
N848        O852   1.262       .  A
N851        O854   1.262       .  A
N851        O855   1.262       .  A
C856        H863   1.084       .  S
C856        C857   1.403       .  A
C856        C861   1.395       .  A
C857        C858   1.400       .  A
C858        C859   1.396       .  A
C858        N865   1.430       .  S
C859        H864   1.084       .  S
C859        C860   1.409       .  A
C860        C861   1.405       .  A
C861        N862   1.428       .  S
N862        O867   1.262       .  A
N862        O866   1.262       .  A
N865        O868   1.262       .  A
N865        O869   1.262       .  A
C870        H877   1.084       .  S
C870        C871   1.395       .  A
C870        C875   1.401       .  A
C871        C872   1.416       .  A
C872        C873   1.397       .  A
C872        N879   1.431       .  S
C873        H878   1.084       .  S
C873        C874   1.396       .  A
C874        C875   1.416       .  A
C875        N876   1.429       .  S
N876        O881   1.261       .  A
N876        O880   1.262       .  A
N879        O882   1.262       .  A
N879        O883   1.262       .  A
C884        H891   1.084       .  S
C884        C885   1.414       .  A
C884        C889   1.402       .  A
C885        C886   1.405       .  A
C886        C887   1.389       .  A
C886        N893   1.428       .  S
C887        H892   1.083       .  S
C887        C888   1.411       .  A
C888        C889   1.403       .  A
C889        N890   1.428       .  S
N890        O895   1.262       .  A
N890        O894   1.262       .  A
N893        O896   1.262       .  A
N893        O897   1.262       .  A
C898        H905   1.083       .  S
C898        C899   1.411       .  A
C898        C903   1.398       .  A
C899        C900   1.405       .  A
C900        C901   1.398       .  A
C900        N907   1.423       .  S
C901        H906   1.081       .  S
C901        C902   1.407       .  A
C902        C903   1.408       .  A
C903        N904   1.429       .  S
N904        O909   1.262       .  A
N904        O908   1.262       .  A
N907        O910   1.262       .  A
N907        O911   1.262       .  A
C912        H919   1.084       .  S
C912        C913   1.405       .  A
C912        C917   1.402       .  A
C913        C914   1.399       .  A
C914        C915   1.395       .  A
C914        N921   1.429       .  S
C915        H920   1.083       .  S
C915        C916   1.410       .  A
C916        C917   1.408       .  A
C917        N918   1.428       .  S
N918        O923   1.262       .  A
N918        O922   1.262       .  A
N921        O924   1.261       .  A
N921        O925   1.262       .  A
C926        H933   1.084       .  S
C926        C927   1.391       .  A
C926        C931   1.396       .  A
C927        C928   1.417       .  A
C928        C929   1.406       .  A
C928        N935   1.429       .  S
C929        H934   1.083       .  S
C929        C930   1.402       .  A
C930        C931   1.421       .  A
C931        N932   1.428       .  S
N932        O937   1.262       .  A
N932        O936   1.262       .  A
N935        O938   1.262       .  A
N935        O939   1.262       .  A
C940        H947   1.083       .  S
C940        C941   1.411       .  A
C940        C945   1.405       .  A
C941        C942   1.409       .  A
C942        C943   1.396       .  A
C942        N949   1.428       .  S
C943        H948   1.084       .  S
C943        C944   1.408       .  A
C944        C945   1.407       .  A
C945        N946   1.428       .  S
N946        O951   1.262       .  A
N946        O950   1.262       .  A
N949        O952   1.262       .  A
N949        O953   1.262       .  A
C954        H961   1.081       .  S
C954        C955   1.410       .  A
C954        C959   1.401       .  A
C955        C956   1.402       .  A
C956        C957   1.394       .  A
C956        N963   1.429       .  S
C957        H962   1.082       .  S
C957        C958   1.411       .  A
C958        C959   1.406       .  A
C959        N960   1.428       .  S
N960        O965   1.262       .  A
N960        O964   1.262       .  A
N963        O966   1.262       .  A
N963        O967   1.262       .  A
C968        H975   1.083       .  S
C968        C969   1.402       .  A
C968        C973   1.405       .  A
C969        C970   1.421       .  A
C970        C971   1.399       .  A
C970        N977   1.429       .  S
C971        H976   1.084       .  S
C971        C972   1.396       .  A
C972        C973   1.417       .  A
C973        N974   1.428       .  S
N974        O979   1.262       .  A
N974        O978   1.262       .  A
N977        O980   1.262       .  A
N977        O981   1.262       .  A
C982       N1000   1.357       .  A
C982       C1019   1.450       .  S
C982       C1953   1.478       .  S
N983       N1000   1.330       .  A
N983       N1005   1.320       .  A
N983      Co1020   2.117       .  S
C984       N1009   1.346       .  A
C984       C1022   1.473       .  S
C984       H1029   1.082       .  S
H985       C1026   1.081       .  S
C986       N1010   1.334       .  A
C986        C990   1.444       .  S
C986       H1015   1.081       .  S
Co987      N1005   2.062   1_565  S
Co987       N995   2.064       .  S
Co987      N1027   2.049   1_565  S
Co987      N1003   2.056       .  S
Co987     Cl1031   2.423   1_565  S
N988       C1026   1.351       .  A
N988        N995   1.321       .  A
N988       Co989   2.122       .  S
Co989       N992   2.110       .  S
Co989      N1009   2.101       .  S
Co989       N996   2.130       .  S
Co989     Cl1031   2.476   1_565  S
C990       N1028   1.358       .  A
C990       C1894   1.474       .  S
N991        N998   1.319       .  A
N991       N1021   1.316       .  A
N991      Co1024   2.048       .  S
N992       N1010   1.319       .  A
N992       N1028   1.329       .  A
N993       C1022   1.340       .  A
N993       N1003   1.319       .  A
H994       C1019   1.081       .  S
N995       N1016   1.320       .  A
N996       N1014   1.320       .  A
N996       N1001   1.332       .  A
C997       N1001   1.361       .  A
C997       C1025   1.444       .  S
C997       C1883   1.480       .  S
N998       C1013   1.349       .  A
N998      Co1020   2.111       .  S
C999       N1027   1.328       .  A
C999       C1002   1.443       .  S
C999       H1033   1.080       .  S
C1002      N1023   1.361       .  A
C1002      C1936   1.478       .  S
N1003      N1009   1.319       .  A
N1004      C1030   1.350       .  A
N1004      N1006   1.320       .  A
N1004     Co1020   2.121       .  S
N1005      C1019   1.337       .  A
N1006      N1034   1.322       .  A
N1006     Co1024   2.062       .  S
H1007      C1030   1.081       .  S
H1008      C1025   1.081       .  S
N1010     Co1024   2.055   1_565  S
N1011      N1023   1.332       .  A
N1011      N1027   1.319       .  A
N1011     Co1020   2.116       .  S
C1012      N1016   1.343       .  A
C1012      C1026   1.478       .  S
C1012      C1866   1.489       .  S
C1013      C1032   1.474       .  S
C1013      H1017   1.080       .  S
N1014      C1025   1.332       .  A
N1014     Co1024   2.049   1_565  S
C1018      N1034   1.342       .  A
C1018      C1030   1.473       .  S
C1018      C1908   1.483       .  S
Co1020    Cl1031   2.473       .  S
N1021      C1032   1.340       .  A
C1022      C1855   1.477       .  S
Co1024    Cl1031   2.433       .  S
C1032      C1922   1.477       .  S
C1035      N1053   1.362       .  A
C1035      C1072   1.434       .  S
C1035      C1838   1.469       .  S
N1036      N1053   1.330       .  A
N1036      N1058   1.319       .  A
N1036     Co1073   2.122       .  S
C1037      N1062   1.345       .  A
C1037      C1075   1.471       .  S
C1037      H1082   1.081       .  S
H1038      C1079   1.081       .  S
C1039      N1063   1.329       .  A
C1039      C1043   1.441       .  S
C1039      H1068   1.081       .  S
Co1040     N1058   2.026   1_655  S
Co1040     N1048   2.049       .  S
Co1040     N1080   2.035   1_655  S
Co1040     N1056   2.044       .  S
Co1040    Cl1084   2.420   1_655  S
N1041      C1079   1.349       .  A
N1041      N1048   1.318       .  A
N1041     Co1042   2.125       .  S
Co1042     N1045   2.104       .  S
Co1042     N1062   2.101       .  S
Co1042     N1049   2.122       .  S
Co1042    Cl1084   2.476   1_655  S
C1043      N1081   1.357       .  A
C1043      C1782   1.468       .  S
N1044      N1051   1.318       .  A
N1044      N1074   1.318       .  A
N1044     Co1077   2.054       .  S
N1045      N1063   1.319       .  A
N1045      N1081   1.329       .  A
N1046      C1075   1.339       .  A
N1046      N1056   1.317       .  A
H1047      C1072   1.080       .  S
N1048      N1069   1.321       .  A
N1049      N1067   1.320       .  A
N1049      N1054   1.331       .  A
C1050      N1054   1.359       .  A
C1050      C1078   1.444       .  S
C1050      C1771   1.476       .  S
N1051      C1066   1.350       .  A
N1051     Co1073   2.115       .  S
C1052      N1080   1.328       .  A
C1052      C1055   1.438       .  S
C1052      H1086   1.081       .  S
C1055      N1076   1.356       .  A
C1055      C1824   1.459       .  S
N1056      N1062   1.318       .  A
N1057      C1083   1.353       .  A
N1057      N1059   1.320       .  A
N1057     Co1073   2.129       .  S
N1058      C1072   1.325       .  A
N1059      N1087   1.319       .  A
N1059     Co1077   2.050       .  S
H1060      C1083   1.081       .  S
H1061      C1078   1.081       .  S
N1063     Co1077   2.049   1_655  S
N1064      N1076   1.326       .  A
N1064      N1080   1.319       .  A
N1064     Co1073   2.102       .  S
C1065      N1069   1.340       .  A
C1065      C1079   1.480       .  S
C1065      C1754   1.489       .  S
C1066      C1085   1.478       .  S
C1066      H1070   1.080       .  S
N1067      C1078   1.334       .  A
N1067     Co1077   2.055   1_655  S
C1071      N1087   1.338       .  A
C1071      C1083   1.476       .  S
C1071      C1799   1.478       .  S
Co1073    Cl1084   2.471       .  S
N1074      C1085   1.340       .  A
C1075      C1740   1.470       .  S
Co1077    Cl1084   2.420       .  S
C1085      C1813   1.484       .  S
C1088      N1106   1.356       .  A
C1088      C1125   1.442       .  S
C1088      C1729   1.466       .  S
N1089      N1106   1.330       .  A
N1089      N1111   1.321       .  A
N1089     Co1126   2.106       .  S
C1090      N1115   1.349       .  A
C1090      C1128   1.477       .  S
C1090      H1135   1.081       .  S
H1091      C1132   1.080       .  S
C1092      N1116   1.333       .  A
C1092      C1096   1.452       .  S
C1092      H1121   1.081       .  S
Co1093     N1111   2.054       .  S
Co1093     N1101   2.069       .  S
Co1093     N1133   2.066       .  S
Co1093     N1109   2.065       .  S
Co1093    Cl1137   2.428       .  S
N1094      C1132   1.345       .  A
N1094      N1101   1.319       .  A
N1094     Co1095   2.104       .  S
Co1095     N1098   2.113       .  S
Co1095     N1115   2.120       .  S
Co1095     N1102   2.108       .  S
Co1095    Cl1137   2.475       .  S
C1096      N1134   1.359       .  A
C1096      C1673   1.485       .  S
N1097      N1104   1.321       .  A
N1097      N1127   1.320       .  A
N1097     Co1130   2.051       .  S
N1098      N1116   1.319       .  A
N1098      N1134   1.329       .  A
N1099      C1128   1.343       .  A
N1099      N1109   1.322       .  A
H1100      C1125   1.081       .  S
N1101      N1122   1.322       .  A
N1102      N1120   1.318       .  A
N1102      N1107   1.328       .  A
C1103      N1107   1.359       .  A
C1103      C1131   1.441       .  S
C1103      C1659   1.471       .  S
N1104      C1119   1.349       .  A
N1104     Co1126   2.119       .  S
C1105      N1133   1.336       .  A
C1105      C1108   1.448       .  S
C1105      H1139   1.081       .  S
C1108      N1129   1.358       .  A
C1108      C1715   1.478       .  S
N1109      N1115   1.321       .  A
N1110      C1136   1.346       .  A
N1110      N1112   1.318       .  A
N1110     Co1126   2.107       .  S
N1111      C1125   1.330       .  A
N1112      N1140   1.316       .  A
N1112     Co1130   2.047       .  S
H1113      C1136   1.079       .  S
H1114      C1131   1.082       .  S
N1116     Co1130   2.059       .  S
N1117      N1129   1.330       .  A
N1117      N1133   1.321       .  A
N1117     Co1126   2.116       .  S
C1118      N1122   1.346       .  A
C1118      C1132   1.474       .  S
C1118      C1642   1.488       .  S
C1119      C1138   1.471       .  S
C1119      H1123   1.081       .  S
N1120      C1131   1.331       .  A
N1120     Co1130   2.042       .  S
C1124      N1140   1.341       .  A
C1124      C1136   1.479       .  S
C1124      C1687   1.484       .  S
Co1126    Cl1137   2.477       .  S
N1127      C1138   1.339       .  A
C1128      C1628   1.488       .  S
Co1130    Cl1137   2.426       .  S
C1138      C1701   1.470       .  S
C1141      N1159   1.343       .  A
C1141      C1600   1.465       .  S
N1142      N1159   1.318       .  A
N1142     Co1179   2.051       .  S
C1143      N1168   1.351       .  A
C1143      C1181   1.475       .  S
C1143      H1188   1.081       .  S
H1144      C1185   1.081       .  S
C1145      N1169   1.338       .  A
C1145      H1174   1.079       .  S
Co1146     N1164   2.067       .  S
Co1146     N1154   2.043       .  S
Co1146     N1186   2.062       .  S
Co1146     N1162   2.052       .  S
N1147      C1185   1.358       .  A
N1147      N1154   1.320       .  A
N1147     Co1148   2.135       .  S
Co1148     N1151   2.116       .  S
Co1148     N1168   2.114       .  S
Co1148     N1155   2.115       .  S
C1149      N1187   1.359   1_554  A
N1150      N1157   1.318       .  A
N1150      N1180   1.334       .  A
N1150     Co1183   2.120       .  S
N1151      N1187   1.330       .  A
N1152      C1181   1.340       .  A
N1152      N1162   1.316       .  A
H1153      C1178   1.081       .  S
N1154      N1175   1.314       .  A
N1155      N1160   1.329       .  A
C1156      C1184   1.465       .  S
C1156      C1586   1.501       .  S
N1157      C1172   1.321       .  A
N1157     Co1179   2.033       .  S
C1158      N1186   1.336       .  A
C1158      H1192   1.080       .  S
C1161      N1182   1.348       .  A
C1161      C1617   1.474       .  S
N1162      N1168   1.319       .  A
N1163      C1189   1.318       .  A
N1163      N1165   1.315       .  A
N1163     Co1179   2.029       .  S
N1164      C1178   1.338       .  A
N1165      N1193   1.333       .  A
N1165     Co1183   2.105       .  S
H1166      C1189   1.079       .  S
H1167      C1184   1.079       .  S
N1169     Co1183   2.084       .  S
N1170      N1182   1.320       .  A
N1170     Co1179   2.057       .  S
C1171      N1175   1.336       .  A
C1171      C1185   1.483       .  S
C1171      C1757   1.488       .  S
C1172      C1191   1.441       .  S
C1172      H1176   1.081       .  S
N1173      C1184   1.341       .  A
N1173     Co1183   2.091       .  S
C1177      N1193   1.360       .  A
C1177      C1189   1.447       .  S
C1177      C1656   1.478       .  S
Co1179    Cl1190   2.427       .  S
N1180      C1191   1.363       .  A
C1181      C1670   1.480       .  S
Co1183    Cl1190   2.466       .  S
C1191      C1743   1.477       .  S
C1194      N1212   1.342       .  A
C1194      C1558   1.468       .  S
N1195      N1212   1.313       .  A
N1195     Co1232   2.046       .  S
C1196      N1221   1.353       .  A
C1196      C1234   1.480       .  S
C1196      H1241   1.081       .  S
H1197      C1238   1.080       .  S
C1198      N1222   1.338       .  A
C1198      H1227   1.081       .  S
Co1199     N1217   2.057       .  S
Co1199     N1207   2.043       .  S
Co1199     N1239   2.056       .  S
Co1199     N1215   2.035       .  S
N1200      C1238   1.350       .  A
N1200      N1207   1.318       .  A
N1200     Co1201   2.111       .  S
Co1201     N1204   2.097       .  S
Co1201     N1221   2.115       .  S
Co1201     N1208   2.109       .  S
C1202      N1240   1.352   1_554  A
C1202      C1530   1.494       .  S
N1203      N1210   1.318       .  A
N1203      N1233   1.335       .  A
N1203     Co1236   2.133       .  S
N1204      N1240   1.326       .  A
N1205      C1234   1.335       .  A
N1205      N1215   1.312       .  A
H1206      C1231   1.078       .  S
N1207      N1228   1.314       .  A
N1208      N1213   1.330       .  A
C1209      C1237   1.464       .  S
C1209      C1544   1.492       .  S
N1210      C1225   1.332       .  A
N1210     Co1232   2.053       .  S
C1211      N1239   1.335       .  A
C1211      H1245   1.077       .  S
C1214      N1235   1.350       .  A
C1214      C1603   1.470       .  S
N1215      N1221   1.317       .  A
N1216      C1242   1.330       .  A
N1216      N1218   1.318       .  A
N1216     Co1232   2.043       .  S
N1217      C1231   1.341       .  A
N1218      N1246   1.333       .  A
N1218     Co1236   2.120       .  S
H1219      C1242   1.082       .  S
H1220      C1237   1.081       .  S
N1222     Co1236   2.092       .  S
N1223      N1235   1.318       .  A
N1223     Co1232   2.063       .  S
C1224      N1228   1.339       .  A
C1224      C1238   1.477       .  S
C1224      C1925   1.478       .  S
C1225      C1244   1.446       .  S
C1225      H1229   1.081       .  S
N1226      C1237   1.341       .  A
N1226     Co1236   2.105       .  S
C1230      N1246   1.360       .  A
C1230      C1242   1.441       .  S
C1230      C1768   1.473       .  S
Co1232    Cl1243   2.423       .  S
N1233      C1244   1.365       .  A
C1234      C1785   1.477       .  S
Co1236    Cl1243   2.461       .  S
C1244      C1911   1.487       .  S
C1247      N1265   1.351       .  A
C1247      C1516   1.473       .  S
N1248      N1265   1.318       .  A
N1248     Co1285   2.062       .  S
C1249      N1274   1.349       .  A
C1249      C1287   1.476       .  S
C1249      H1294   1.081       .  S
H1250      C1291   1.081       .  S
C1251      N1275   1.340       .  A
C1251      H1280   1.079       .  S
Co1252     N1270   2.056       .  S
Co1252     N1260   2.044       .  S
Co1252     N1292   2.066       .  S
Co1252     N1268   2.037       .  S
N1253      C1291   1.357       .  A
N1253      N1260   1.319       .  A
N1253     Co1254   2.129       .  S
Co1254     N1257   2.110       .  S
Co1254     N1274   2.109       .  S
Co1254     N1261   2.103       .  S
C1255      N1293   1.354       .  A
C1255      C1488   1.482       .  S
N1256      N1263   1.318       .  A
N1256      N1286   1.332       .  A
N1256     Co1289   2.119       .  S
N1257      N1293   1.328       .  A
N1258      C1287   1.339       .  A
N1258      N1268   1.312       .  A
H1259      C1284   1.078       .  S
N1260      N1281   1.314       .  A
N1261      N1266   1.328       .  A
C1262      C1290   1.465       .  S
C1262      C1575   1.491       .  S
N1263      C1278   1.325       .  A
N1263     Co1285   2.034       .  S
C1264      N1292   1.338       .  A
C1264      H1298   1.081       .  S
C1267      N1288   1.345       .  A
C1267      C1505   1.469       .  S
N1268      N1274   1.318       .  A
N1269      C1295   1.323       .  A
N1269      N1271   1.318       .  A
N1269     Co1285   2.040       .  S
N1270      C1284   1.337       .  A
N1271      N1299   1.330       .  A
N1271     Co1289   2.099       .  S
H1272      C1295   1.081       .  S
H1273      C1290   1.081       .  S
N1275     Co1289   2.088       .  S
N1276      N1288   1.319       .  A
N1276     Co1285   2.051       .  S
C1277      N1281   1.337       .  A
C1277      C1291   1.483       .  S
C1277      C1869   1.487       .  S
C1278      C1297   1.442       .  S
C1278      H1282   1.081       .  S
N1279      C1290   1.342       .  A
N1279     Co1289   2.104       .  S
C1283      N1299   1.357       .  A
C1283      C1295   1.443       .  S
C1283      C1827   1.469       .  S
Co1285    Cl1296   2.425       .  S
N1286      C1297   1.361       .  A
C1287      C1841   1.474       .  S
Co1289    Cl1296   2.454       .  S
C1297      C1852   1.475       .  S
C1300      N1318   1.361       .  A
C1300      C1337   1.446       .  S
C1300      C1897   1.483       .  S
N1301      N1318   1.332       .  A
N1301      N1323   1.318       .  A
N1301     Co1338   2.119       .  S
C1302      N1327   1.341       .  A
C1302      C1340   1.464       .  S
C1302      H1347   1.079       .  S
H1303      C1344   1.078       .  S
C1304      N1328   1.356       .  A
C1304      C1308   1.483       .  S
C1304      H1333   1.080       .  S
Co1305     N1323   2.049       .  S
Co1305     N1313   2.069       .  S
Co1305     N1345   2.050       .  S
Co1305     N1321   2.062       .  S
N1306      C1344   1.337       .  A
N1306     Co1307   2.056       .  S
Co1307     N1310   2.032       .  S
Co1307     N1327   2.057       .  S
Co1307     N1314   2.032       .  S
Co1307    Cl1349   2.432       .  S
C1308      N1346   1.336       .  A
C1308      C1880   1.484       .  S
N1309      N1339   1.326       .  A
N1309     Co1342   2.105       .  S
N1310      N1328   1.317       .  A
N1310      N1346   1.311       .  A
N1311      N1321   1.318       .  A
H1312      C1337   1.081       .  S
N1313      N1334   1.320       .  A
N1314      N1332   1.318       .  A
N1314      N1319   1.308       .  A
C1315      N1319   1.335       .  A
C1315      C1343   1.486       .  S
C1315      C1684   1.486       .  S
N1316      C1331   1.341       .  A
N1316     Co1338   2.096       .  S
C1317      N1345   1.330       .  A
C1317      C1320   1.442       .  S
C1317      H1351   1.081       .  S
C1320      N1341   1.359       .  A
C1320      C1698   1.471       .  S
N1322      C1348   1.343       .  A
N1322     Co1338   2.100       .  S
N1323      C1337   1.329       .  A
N1324      N1352   1.328       .  A
N1324     Co1342   2.115       .  S
H1325      C1348   1.081       .  S
H1326      C1343   1.081       .  S
N1328     Co1342   2.125       .  S
N1329      N1341   1.332       .  A
N1329      N1345   1.318       .  A
N1329     Co1338   2.115       .  S
C1330      C1344   1.464       .  S
C1330      C1519   1.476       .  S
C1331      C1350   1.466   1_556  S
C1331      H1335   1.081       .  S
N1332      C1343   1.357       .  A
N1332     Co1342   2.123       .  S
C1336      N1352   1.357       .  A
C1336      C1589   1.499       .  S
C1340      C1474   1.462       .  S
Co1342    Cl1349   2.460       .  S
C1350      C1533   1.496       .  S
C1353      N1371   1.353       .  A
C1353      C1502   1.473       .  S
N1354      N1371   1.320       .  A
N1354     Co1391   2.074       .  S
C1355      N1380   1.354       .  A
C1355      C1393   1.477       .  S
C1355      H1400   1.081       .  S
H1356      C1397   1.081       .  S
C1357      N1381   1.342       .  A
C1357      H1386   1.079       .  S
Co1358     N1376   2.059       .  S
Co1358     N1366   2.035       .  S
Co1358     N1398   2.053       .  S
Co1358     N1374   2.034       .  S
N1359      C1397   1.355       .  A
N1359      N1366   1.317       .  A
N1359     Co1360   2.115       .  S
Co1360     N1363   2.115       .  S
Co1360     N1380   2.126       .  S
Co1360     N1367   2.097       .  S
C1361      N1399   1.357   1_554  A
N1362      N1369   1.318       .  A
N1362      N1392   1.335       .  A
N1362     Co1395   2.123       .  S
N1363      N1399   1.329       .  A
N1364      C1393   1.332       .  A
N1364      N1374   1.313       .  A
H1365      C1390   1.078       .  S
N1366      N1387   1.310       .  A
N1367      N1372   1.327       .  A
C1368      C1396   1.462       .  S
C1368      C1463   1.487       .  S
N1369      C1384   1.324       .  A
N1369     Co1391   2.035       .  S
C1370      N1398   1.336       .  A
C1370      H1404   1.078       .  S
C1373      N1394   1.345       .  A
C1373      C1477   1.457       .  S
N1374      N1380   1.319       .  A
N1375      C1401   1.333       .  A
N1375      N1377   1.319       .  A
N1375     Co1391   2.061       .  S
N1376      C1390   1.337       .  A
N1377      N1405   1.333       .  A
N1377     Co1395   2.126       .  S
H1378      C1401   1.081       .  S
H1379      C1396   1.081       .  S
N1381     Co1395   2.104       .  S
N1382      N1394   1.318       .  A
N1382     Co1391   2.046       .  S
C1383      N1387   1.337       .  A
C1383      C1397   1.480       .  S
C1383      C1810   1.480       .  S
C1384      C1403   1.439       .  S
C1384      H1388   1.082       .  S
N1385      C1396   1.343       .  A
N1385     Co1395   2.101       .  S
C1389      N1405   1.363       .  A
C1389      C1401   1.450       .  S
C1389      C1712   1.486       .  S
Co1391    Cl1402   2.430       .  S
N1392      C1403   1.363       .  A
C1393      C1726   1.467       .  S
Co1395    Cl1402   2.463       .  S
C1403      C1796   1.476       .  S
C1406      N1424   1.363       .  A
C1406      C1443   1.451       .  S
C1406      C1950   1.488       .  S
N1407      N1424   1.333       .  A
N1407      N1429   1.317       .  A
N1407     Co1444   2.128       .  S
C1408      N1433   1.337       .  A
C1408      C1446   1.465       .  S
C1408      H1453   1.081       .  S
H1409      C1450   1.079       .  S
C1410      N1434   1.354       .  A
C1410      C1414   1.481       .  S
C1410      H1439   1.081       .  S
Co1411     N1429   2.051       .  S
Co1411     N1419   2.066       .  S
Co1411     N1451   2.053       .  S
Co1411     N1427   2.053       .  S
N1412      C1450   1.336       .  A
N1412     Co1413   2.059       .  S
Co1413     N1416   2.044       .  S
Co1413     N1433   2.069       .  S
Co1413     N1420   2.044       .  S
Co1413    Cl1455   2.428       .  S
C1414      N1452   1.337       .  A
C1414      C1939   1.482       .  S
N1415      N1445   1.325       .  A
N1415     Co1448   2.099       .  S
N1416      N1434   1.319       .  A
N1416      N1452   1.314       .  A
N1417      N1427   1.317       .  A
H1418      C1443   1.080       .  S
N1419      N1440   1.320       .  A
N1420      N1438   1.318       .  A
N1420      N1425   1.312       .  A
C1421      N1425   1.339       .  A
C1421      C1449   1.478       .  S
C1421      C1631   1.483       .  S
N1422      C1437   1.340       .  A
N1422     Co1444   2.090       .  S
C1423      N1451   1.327       .  A
C1423      C1426   1.445       .  S
C1423      H1457   1.080       .  S
C1426      N1447   1.363       .  A
C1426      C1645   1.484       .  S
N1428      C1454   1.345       .  A
N1428     Co1444   2.112       .  S
N1429      C1443   1.333       .  A
N1430      N1458   1.327       .  A
N1430     Co1448   2.108       .  S
H1431      C1454   1.081       .  S
H1432      C1449   1.081       .  S
N1434     Co1448   2.123       .  S
N1435      N1447   1.335       .  A
N1435      N1451   1.318       .  A
N1435     Co1444   2.120       .  S
C1436      C1450   1.461       .  S
C1436      C1561   1.468       .  S
C1437      C1456   1.458       .  S
C1437      H1441   1.081       .  S
N1438      C1449   1.356       .  A
N1438     Co1448   2.118       .  S
C1442      N1458   1.353       .  A
C1442      C1460   1.490       .  S
C1446      C1614   1.472       .  S
Co1448    Cl1455   2.465       .  S
C1456      C1491   1.483       .  S
C1459      H1466   1.083       .  S
C1459      C1460   1.406       .  A
C1459      C1464   1.406       .  A
C1460      C1461   1.413       .  A
C1461      C1462   1.405       .  A
C1461      N1468   1.429       .  S
C1462      H1467   1.083       .  S
C1462      C1463   1.404       .  A
C1463      C1464   1.412       .  A
C1464      N1465   1.429       .  S
N1465      O1470   1.262       .  A
N1468      O1472   1.262       .  A
C1473      H1480   1.083       .  S
C1473      C1478   1.393       .  A
C1474      C1475   1.406       .  A
C1475      C1476   1.395       .  A
C1475      N1482   1.429       .  S
C1476      H1481   1.067       .  S
C1476      C1477   1.403       .  A
C1478      N1479   1.428       .  S
N1479      O1483   1.262       .  A
N1482      O1485   1.262       .  A
N1482      O1486   1.262       .  A
C1487      H1494   1.084       .  S
C1487      C1492   1.402   1_565  A
C1488      C1489   1.412   1_556  A
C1489      C1490   1.402   1_565  A
C1489      N1496   1.429       .  S
C1490      H1495   1.084       .  S
C1490      C1491   1.402   1_554  A
C1492      N1493   1.429       .  S
N1493      O1498   1.262       .  A
N1496      O1499   1.262       .  A
C1501      H1508   1.084       .  S
C1501      C1502   1.402       .  A
C1501      C1506   1.391       .  A
C1503      C1504   1.393       .  A
C1503      N1510   1.426       .  S
C1504      H1509   1.083       .  S
C1505      C1506   1.412       .  A
C1506      N1507   1.429       .  S
N1507      O1511   1.261       .  A
N1510      O1514   1.262       .  A
C1515      H1522   1.084       .  S
C1515      C1516   1.402       .  A
C1515      C1520   1.391       .  A
C1517      C1518   1.396       .  A
C1517      N1524   1.428       .  S
C1518      H1523   1.084       .  S
C1519      C1520   1.411       .  A
C1520      N1521   1.426       .  S
N1521      O1526   1.262       .  A
N1521      O1525   1.261       .  A
N1524      O1527   1.262       .  A
N1524      O1528   1.262       .  A
C1529      H1536   1.082       .  S
C1529      C1530   1.405       .  A
C1529      C1534   1.405   1_545  A
C1531      C1532   1.406   1_545  A
C1531      N1538   1.428       .  S
C1532      H1537   1.083       .  S
C1533      C1534   1.414       .  A
C1534      N1535   1.427       .  S
N1535      O1539   1.261       .  A
N1538      O1542   1.262       .  A
C1543      H1550   1.082       .  S
C1543      C1544   1.404       .  A
C1543      C1548   1.402   1_655  A
C1545      C1546   1.410   1_655  A
C1545      N1552   1.428       .  S
C1546      H1551   1.083       .  S
C1547      C1548   1.415       .  A
C1548      N1549   1.428       .  S
N1549      O1554   1.262       .  A
N1549      O1553   1.262       .  A
N1552      O1555   1.262       .  A
N1552      O1556   1.262       .  A
C1557      H1564   1.083       .  S
C1557      C1558   1.404       .  A
C1557      C1562   1.387       .  A
C1558      C1559   1.406       .  A
C1559      C1560   1.397       .  A
C1559      N1566   1.429       .  S
C1560      C1561   1.405       .  A
C1561      C1562   1.409       .  A
C1562      N1563   1.428       .  S
N1563      O1567   1.262       .  A
N1566      O1569   1.262       .  A
C1571      H1578   1.083       .  S
C1571      C1576   1.407   1_655  A
C1572      C1573   1.418       .  A
C1573      C1574   1.402   1_655  A
C1573      N1580   1.428       .  S
C1574      H1579   1.083       .  S
C1574      C1575   1.402       .  A
C1576      N1577   1.428       .  S
N1577      O1582   1.262       .  A
N1577      O1581   1.262       .  A
N1580      O1583   1.262       .  A
N1580      O1584   1.262       .  A
C1585      C1586   1.405       .  A
C1585      C1590   1.406       .  A
C1586      C1587   1.419       .  A
C1587      C1588   1.406       .  A
C1587      N1594   1.428       .  S
C1588      H1593   1.084       .  S
C1588      C1589   1.404       .  A
C1589      C1590   1.417       .  A
N1591      O1596   1.262       .  A
N1594      O1597   1.262       .  A
C1599      H1606   1.082       .  S
C1599      C1604   1.395       .  A
C1600      C1601   1.410       .  A
C1601      C1602   1.389       .  A
C1601      N1608   1.430       .  S
C1602      H1607   1.084       .  S
C1602      C1603   1.403       .  A
C1604      N1605   1.428       .  S
N1605      O1610   1.262       .  A
N1605      O1609   1.262       .  A
N1608      O1611   1.262       .  A
N1608      O1612   1.262       .  A
C1613      H1620   1.081       .  S
C1613      C1614   1.399       .  A
C1613      C1618   1.391       .  A
C1614      C1615   1.413       .  A
C1615      C1616   1.395       .  A
C1616      H1621   1.081       .  S
C1616      C1617   1.402       .  A
C1617      C1618   1.411       .  A
C1618      N1619   1.426       .  S
N1619      O1624   1.262       .  A
N1619      O1623   1.261       .  A
N1622      O1625   1.262       .  A
C1627      H1634   1.083       .  S
C1627      C1628   1.412       .  A
C1627      C1632   1.411       .  A
C1628      C1629   1.402       .  A
C1629      C1630   1.391       .  A
C1629      N1636   1.418       .  S
C1630      H1635   1.085       .  S
C1630      C1631   1.402       .  A
C1631      C1632   1.409       .  A
C1632      N1633   1.427       .  S
N1633      O1638   1.262       .  A
N1633      O1637   1.262       .  A
N1636      O1639   1.261       .  A
N1636      O1640   1.261       .  A
C1641      H1648   1.084       .  S
C1641      C1642   1.412       .  A
C1641      C1646   1.408       .  A
C1642      C1643   1.409       .  A
C1643      C1644   1.396       .  A
C1643      N1650   1.428       .  S
C1644      H1649   1.083       .  S
C1644      C1645   1.406       .  A
C1645      C1646   1.407       .  A
C1646      N1647   1.429       .  S
N1647      O1652   1.262       .  A
N1647      O1651   1.262       .  A
N1650      O1653   1.262       .  A
N1650      O1654   1.262       .  A
C1655      H1662   1.055       .  S
C1655      C1656   1.403       .  A
C1655      C1660   1.384       .  A
C1656      C1657   1.407       .  A
C1657      C1658   1.408       .  A
C1657      N1664   1.427       .  S
C1658      H1663   1.078       .  S
C1658      C1659   1.411       .  A
C1659      C1660   1.393       .  A
C1660      N1661   1.419       .  S
N1661      O1666   1.261       .  A
N1661      O1665   1.259       .  A
N1664      O1667   1.261       .  A
N1664      O1668   1.262       .  A
C1669      H1676   1.083       .  S
C1669      C1670   1.408       .  A
C1669      C1674   1.399       .  A
C1670      C1671   1.405       .  A
C1671      C1672   1.402       .  A
C1671      N1678   1.428       .  S
C1672      H1677   1.082       .  S
C1672      C1673   1.411       .  A
C1673      C1674   1.408       .  A
C1674      N1675   1.429       .  S
N1675      O1680   1.262       .  A
N1675      O1679   1.262       .  A
N1678      O1681   1.262       .  A
N1678      O1682   1.262       .  A
C1683      H1690   1.083       .  S
C1683      C1684   1.413       .  A
C1683      C1688   1.392       .  A
C1684      C1685   1.405       .  A
C1685      C1686   1.404       .  A
C1685      N1692   1.428       .  S
C1686      H1691   1.083       .  S
C1686      C1687   1.415       .  A
C1687      C1688   1.404       .  A
C1688      N1689   1.428       .  S
N1689      O1694   1.262       .  A
N1689      O1693   1.262       .  A
N1692      O1695   1.262       .  A
N1692      O1696   1.262       .  A
C1697      H1704   1.084       .  S
C1697      C1698   1.400       .  A
C1697      C1702   1.403       .  A
C1698      C1699   1.412       .  A
C1699      C1700   1.399       .  A
C1699      N1706   1.429       .  S
C1700      H1705   1.084       .  S
C1700      C1701   1.397       .  A
C1701      C1702   1.413       .  A
C1702      N1703   1.429       .  S
N1703      O1708   1.262       .  A
N1703      O1707   1.262       .  A
N1706      O1709   1.262       .  A
N1706      O1710   1.262       .  A
C1711      H1718   1.084       .  S
C1711      C1712   1.402       .  A
C1711      C1716   1.406       .  A
C1712      C1713   1.418       .  A
C1713      C1714   1.401       .  A
C1713      N1720   1.429       .  S
C1714      H1719   1.084       .  S
C1714      C1715   1.395       .  A
C1715      C1716   1.413       .  A
C1716      N1717   1.429       .  S
N1717      O1722   1.262       .  A
N1717      O1721   1.262       .  A
N1720      O1723   1.261       .  A
N1720      O1724   1.262       .  A
C1725      H1732   1.084       .  S
C1725      C1726   1.406       .  A
C1725      C1730   1.400       .  A
C1726      C1727   1.410       .  A
C1727      C1728   1.399       .  A
C1727      N1734   1.431       .  S
C1728      H1733   1.084       .  S
C1728      C1729   1.401       .  A
C1729      C1730   1.405       .  A
C1730      N1731   1.429       .  S
N1731      O1736   1.262       .  A
N1731      O1735   1.262       .  A
N1734      O1737   1.262       .  A
N1734      O1738   1.262       .  A
C1739      H1746   1.084       .  S
C1739      C1740   1.410       .  A
C1739      C1744   1.402       .  A
C1740      C1741   1.401       .  A
C1741      C1742   1.392       .  A
C1741      N1748   1.429       .  S
C1742      H1747   1.082       .  S
C1742      C1743   1.410       .  A
C1743      C1744   1.406       .  A
C1744      N1745   1.428       .  S
N1745      O1750   1.262       .  A
N1745      O1749   1.262       .  A
N1748      O1751   1.262       .  A
N1748      O1752   1.262       .  A
C1753      H1760   1.083       .  S
C1753      C1754   1.395       .  A
C1753      C1758   1.396       .  A
C1754      C1755   1.423       .  A
C1755      C1756   1.409       .  A
C1755      N1762   1.430       .  S
C1756      H1761   1.083       .  S
C1756      C1757   1.400       .  A
C1757      C1758   1.420       .  A
C1758      N1759   1.430       .  S
N1759      O1764   1.262       .  A
N1759      O1763   1.262       .  A
N1762      O1765   1.262       .  A
N1762      O1766   1.262       .  A
C1767      H1774   1.084       .  S
C1767      C1768   1.400       .  A
C1767      C1772   1.403       .  A
C1768      C1769   1.413       .  A
C1769      C1770   1.402       .  A
C1769      N1776   1.429       .  S
C1770      H1775   1.084       .  S
C1770      C1771   1.399       .  A
C1771      C1772   1.414       .  A
C1772      N1773   1.430       .  S
N1773      O1778   1.262       .  A
N1773      O1777   1.262       .  A
N1776      O1779   1.262       .  A
N1776      O1780   1.262       .  A
C1781      H1788   1.084       .  S
C1781      C1782   1.407       .  A
C1781      C1786   1.399       .  A
C1782      C1783   1.401       .  A
C1783      C1784   1.397       .  A
C1783      N1790   1.431       .  S
C1784      H1789   1.081       .  S
C1784      C1785   1.411       .  A
C1785      C1786   1.405       .  A
C1786      N1787   1.427       .  S
N1787      O1792   1.262       .  A
N1787      O1791   1.262       .  A
N1790      O1793   1.262       .  A
N1790      O1794   1.262       .  A
C1795      H1802   1.085       .  S
C1795      C1796   1.404       .  A
C1795      C1800   1.396       .  A
C1796      C1797   1.406       .  A
C1797      C1798   1.407       .  A
C1797      N1804   1.428       .  S
C1798      H1803   1.084       .  S
C1798      C1799   1.409       .  A
C1799      C1800   1.405       .  A
C1800      N1801   1.426       .  S
N1801      O1806   1.262       .  A
N1801      O1805   1.262       .  A
N1804      O1807   1.262       .  A
N1804      O1808   1.261       .  A
C1809      H1816   1.083       .  S
C1809      C1810   1.405       .  A
C1809      C1814   1.392       .  A
C1810      C1811   1.405       .  A
C1811      C1812   1.406       .  A
C1811      N1818   1.427       .  S
C1812      H1817   1.083       .  S
C1812      C1813   1.413       .  A
C1813      C1814   1.404       .  A
C1814      N1815   1.422       .  S
N1815      O1820   1.262       .  A
N1815      O1819   1.261       .  A
N1818      O1821   1.262       .  A
N1818      O1822   1.262       .  A
C1823      H1830   1.084       .  S
C1823      C1824   1.405       .  A
C1823      C1828   1.399       .  A
C1824      C1825   1.397       .  A
C1825      C1826   1.388       .  A
C1825      N1832   1.426       .  S
C1826      H1831   1.081       .  S
C1826      C1827   1.406       .  A
C1827      C1828   1.407       .  A
C1828      N1829   1.428       .  S
N1829      O1834   1.262       .  A
N1829      O1833   1.262       .  A
N1832      O1835   1.262       .  A
N1832      O1836   1.262       .  A
C1837      H1844   1.083       .  S
C1837      C1838   1.406       .  A
C1837      C1842   1.399       .  A
C1838      C1839   1.397       .  A
C1839      C1840   1.393       .  A
C1839      N1846   1.423       .  S
C1840      H1845   1.085       .  S
C1840      C1841   1.409       .  A
C1841      C1842   1.407       .  A
C1842      N1843   1.427       .  S
N1843      O1848   1.262       .  A
N1843      O1847   1.262       .  A
N1846      O1849   1.261       .  A
N1846      O1850   1.262       .  A
C1851      H1858   1.084       .  S
C1851      C1852   1.396       .  A
C1851      C1856   1.402       .  A
C1852      C1853   1.417       .  A
C1853      C1854   1.396       .  A
C1853      N1860   1.432       .  S
C1854      H1859   1.083       .  S
C1854      C1855   1.397       .  A
C1855      C1856   1.419       .  A
C1856      N1857   1.429       .  S
N1857      O1862   1.262       .  A
N1857      O1861   1.262       .  A
N1860      O1863   1.262       .  A
N1860      O1864   1.262       .  A
C1865      H1872   1.084       .  S
C1865      C1866   1.412       .  A
C1865      C1870   1.406       .  A
C1866      C1867   1.408       .  A
C1867      C1868   1.401       .  A
C1867      N1874   1.429       .  S
C1868      H1873   1.084       .  S
C1868      C1869   1.411       .  A
C1869      C1870   1.405       .  A
C1870      N1871   1.428       .  S
N1871      O1876   1.262       .  A
N1871      O1875   1.262       .  A
N1874      O1877   1.262       .  A
N1874      O1878   1.262       .  A
C1879      H1886   1.083       .  S
C1879      C1880   1.412       .  A
C1879      C1884   1.396       .  A
C1880      C1881   1.407       .  A
C1881      C1882   1.405       .  A
C1881      N1888   1.428       .  S
C1882      H1887   1.083       .  S
C1882      C1883   1.411       .  A
C1883      C1884   1.402       .  A
C1884      N1885   1.429       .  S
N1885      O1890   1.262       .  A
N1885      O1889   1.262       .  A
N1888      O1891   1.262       .  A
N1888      O1892   1.262       .  A
C1893      H1900   1.084       .  S
C1893      C1894   1.406       .  A
C1893      C1898   1.403       .  A
C1894      C1895   1.402       .  A
C1895      C1896   1.398       .  A
C1895      N1902   1.431       .  S
C1896      H1901   1.083       .  S
C1896      C1897   1.411       .  A
C1897      C1898   1.409       .  A
C1898      N1899   1.428       .  S
N1899      O1904   1.262       .  A
N1899      O1903   1.262       .  A
N1902      O1905   1.262       .  A
N1902      O1906   1.262       .  A
C1907      H1914   1.084       .  S
C1907      C1908   1.397       .  A
C1907      C1912   1.403       .  A
C1908      C1909   1.415       .  A
C1909      C1910   1.407       .  A
C1909      N1916   1.429       .  S
C1910      H1915   1.084       .  S
C1910      C1911   1.401       .  A
C1911      C1912   1.418       .  A
C1912      N1913   1.430       .  S
N1913      O1918   1.262       .  A
N1913      O1917   1.262       .  A
N1916      O1919   1.262       .  A
N1916      O1920   1.262       .  A
C1921      H1928   1.083       .  S
C1921      C1922   1.410       .  A
C1921      C1926   1.398       .  A
C1922      C1923   1.405       .  A
C1923      C1924   1.397       .  A
C1923      N1930   1.429       .  S
C1924      H1929   1.083       .  S
C1924      C1925   1.410       .  A
C1925      C1926   1.406       .  A
C1926      N1927   1.428       .  S
N1927      O1932   1.262       .  A
N1927      O1931   1.261       .  A
N1930      O1933   1.262       .  A
N1930      O1934   1.262       .  A
C1935      H1942   1.083       .  S
C1935      C1936   1.410       .  A
C1935      C1940   1.401       .  A
C1936      C1937   1.403       .  A
C1937      C1938   1.400       .  A
C1937      N1944   1.429       .  S
C1938      H1943   1.084       .  S
C1938      C1939   1.412       .  A
C1939      C1940   1.406       .  A
C1940      N1941   1.427       .  S
N1941      O1946   1.262       .  A
N1941      O1945   1.262       .  A
N1944      O1947   1.262       .  A
N1944      O1948   1.262       .  A
C1949      H1956   1.083       .  S
C1949      C1950   1.403       .  A
C1949      C1954   1.406       .  A
C1950      C1951   1.419       .  A
C1951      C1952   1.401       .  A
C1951      N1958   1.429       .  S
C1952      H1957   1.084       .  S
C1952      C1953   1.396       .  A
C1953      C1954   1.413       .  A
C1954      N1955   1.428       .  S
N1955      O1960   1.262       .  A
N1955      O1959   1.262       .  A
N1958      O1961   1.262       .  A
N1958      O1962   1.262       .  A
