geometry optimzed in LAMMPS
_audit_creation_date              2020-11-30 
_audit_creation_method            'lammps2cif' 
_symmetry_space_group_name_H-M    'P1' 
_symmetry_Int_Tables_number       1 
_symmetry_cell_setting            triclinic 
loop_ 
_symmetry_equiv_pos_as_xyz 
  x,y,z 
_cell_length_a                    36.68053398211533 
_cell_length_b                    36.928473011430526 
_cell_length_c                    36.98127858351339 
_cell_angle_alpha                 90.48698418213573 
_cell_angle_beta                  90.14347997219882 
_cell_angle_gamma                 90.40911221488476 
loop_ 
_atom_site_label 
_atom_site_type_symbol 
_atom_site_fract_x 
_atom_site_fract_y 
_atom_site_fract_z 
_atom_site_charge 
O1          O  0.04267736  0.55293621  0.51301879    -0.72670
O2          O  0.04526299  0.44612473  0.48580566    -0.73650
O3          O  0.04435524  0.48703146  0.55231494    -0.62270
O4          O  0.04296650  0.51364466  0.44679230    -0.70680
O5          O  0.10335970  0.51658626  0.44657924    -0.70230
O6          O  0.10440547  0.48801886  0.55096148    -0.61480
O7          O  0.10522854  0.44845495  0.48425707    -0.73990
O8          O  0.10292055  0.55432105  0.51313047    -0.72770
Cu9        Cu  0.04171842  0.49965727  0.49937956     1.04560
Cu10       Cu  0.10599498  0.50168970  0.49863967     1.04330
C11         C  0.07252646  0.57047533  0.51772104     0.93530
C12         C  0.07566845  0.43002614  0.48090823     0.92670
C13         C  0.07490009  0.48433140  0.56877989     0.84820
C14         C  0.07282624  0.52091559  0.43057950     0.91090
O15         O  0.45634959  0.90816169  0.48343517    -0.72670
O16         O  0.56309134  0.89931349  0.50779109    -0.73650
O17         O  0.49692029  0.90360224  0.54948406    -0.62270
O18         O  0.52218446  0.90525314  0.44251298    -0.70680
O19         O  0.52685734  0.96515275  0.44548529    -0.70230
O20         O  0.50175640  0.96346183  0.55156624    -0.61480
O21         O  0.56755939  0.95880673  0.51036583    -0.73990
O22         O  0.46061596  0.96813460  0.48528204    -0.72770
Cu23       Cu  0.50941030  0.90199560  0.49584475     1.04560
Cu24       Cu  0.51431522  0.96591814  0.49840590     1.04330
C25         C  0.44186359  0.93926206  0.47975536     0.93530
C26         C  0.58268332  0.92778413  0.51225358     0.92670
C27         C  0.49537778  0.93344766  0.56732586     0.84820
C28         C  0.52893126  0.93565059  0.42743606     0.91090
O29         O  0.90170379  0.54836042  0.48958198    -0.72670
O30         O  0.89902975  0.44142308  0.51253429    -0.73650
O31         O  0.90247453  0.50631758  0.55428289    -0.62270
O32         O  0.89859516  0.48297730  0.44721751    -0.70680
O33         O  0.95878060  0.48011433  0.44668497    -0.70230
O34         O  0.96254013  0.50716001  0.55311616    -0.61480
O35         O  0.95936863  0.44139067  0.51333640    -0.73990
O36         O  0.96182621  0.54712009  0.48647229    -0.72770
Cu37       Cu  0.89839555  0.49487903  0.50086381     1.04560
Cu38       Cu  0.96269661  0.49395431  0.49973178     1.04330
C39         C  0.93203058  0.56485424  0.48471514     0.93530
C40         C  0.92902448  0.42481419  0.51775078     0.92670
C41         C  0.93283279  0.50977165  0.57102798     0.84820
C42         C  0.92825190  0.47757635  0.42997045     0.91090
O43         O  0.52108363  0.44919394  0.09983968    -0.72670
O44         O  0.49782097  0.55622742  0.09396980    -0.73650
O45         O  0.45486174  0.49097340  0.09550665    -0.62270
O46         O  0.56311275  0.51437386  0.09713882    -0.70680
O47         O  0.56303252  0.51221623  0.03736839    -0.70230
O48         O  0.45694601  0.48641605  0.03566959    -0.61480
O49         O  0.49740648  0.55257593  0.03408105    -0.73990
O50         O  0.52330378  0.44578145  0.03998282    -0.72770
Cu51       Cu  0.50905429  0.50281635  0.09872952     1.04560
Cu52       Cu  0.51014468  0.49912826  0.03475829     1.04330
C53         C  0.52691385  0.43088672  0.07094288     0.93530
C54         C  0.49424849  0.57130644  0.06316878     0.92670
C55         C  0.43907368  0.48466376  0.06514799     0.84820
C56         C  0.58008000  0.51723987  0.06707202     0.91090
C57         C  0.22615315  0.42188078  0.07241090     0.03410
C58         C  0.25748892  0.44111008  0.06127270    -0.12740
C59         C  0.29137002  0.43437353  0.07805157     0.00910
C60         C  0.29325802  0.40834521  0.10553235    -0.11270
C61         C  0.26231623  0.38909263  0.11614330     0.03400
C62         C  0.22926903  0.39512518  0.09866017    -0.10690
H63         H  0.25555181  0.46024604  0.03937818     0.08990
H64         H  0.31932903  0.40205425  0.11769557     0.06520
H65         H  0.20546724  0.37924318  0.10604557     0.06370
C66         C  0.07129191  0.42933341  0.78226564     0.03410
C67         C  0.09667266  0.40128472  0.78094932    -0.12740
C68         C  0.11339589  0.39182156  0.74852391     0.00910
C69         C  0.10337399  0.40883698  0.71665926    -0.11270
C70         C  0.07886818  0.43778949  0.71718532     0.03400
C71         C  0.06309954  0.44843866  0.75036048    -0.10690
H72         H  0.10409009  0.38724037  0.80551931     0.08990
H73         H  0.11599201  0.40052101  0.69145303     0.06520
H74         H  0.04571433  0.47172206  0.75141810     0.06370
C75         C  0.93258374  0.42136237  0.21531800     0.03410
C76         C  0.94143737  0.44006488  0.24791274    -0.12740
C77         C  0.92417132  0.42992905  0.28059352     0.00910
C78         C  0.89823664  0.40217467  0.28012521    -0.11270
C79         C  0.88935043  0.38423114  0.24814460     0.03400
C80         C  0.90754216  0.39262214  0.21628259    -0.10690
H81         H  0.96125704  0.46193347  0.24783883     0.08990
H82         H  0.88484178  0.39437337  0.30503719     0.06520
H83         H  0.90146454  0.37722497  0.19188525     0.06370
O84         O  0.06282651  0.45951427  0.01561657    -0.72670
O85         O  0.95630172  0.46412821  0.98842962    -0.73650
O86         O  0.99573812  0.46159436  0.05465744    -0.62270
O87         O  0.02340832  0.46348680  0.94946964    -0.70680
O88         O  0.01978901  0.40357807  0.94629788    -0.70230
O89         O  0.99478888  0.40153600  0.05354410    -0.61480
O90         O  0.95355064  0.40413443  0.98786059    -0.73990
O91         O  0.06076052  0.39954366  0.01222691    -0.72770
Cu92       Cu  0.00966929  0.46417851  0.00213619     1.04560
Cu93       Cu  0.00712244  0.40006011  0.99990626     1.04330
C94         C  0.07874692  0.42885063  0.01759227     0.93530
C95         C  0.93814703  0.43479376  0.98408756     0.92670
C96         C  0.99094708  0.43151636  0.07074746     0.84820
C97         C  0.02630091  0.43411076  0.93130930     0.91090
C98         C  0.79637502  0.56620542  0.08208020     0.03410
C99         C  0.76456430  0.54680441  0.07162450    -0.12740
C100        C  0.72992563  0.56110056  0.07935783     0.00910
C101        C  0.72717312  0.59469449  0.09656365    -0.11270
C102        C  0.75819709  0.61341997  0.10831793     0.03400
C103        C  0.79256490  0.59921516  0.10073176    -0.10690
H104        H  0.76670259  0.52115781  0.05741803     0.08990
H105        H  0.70038764  0.60559913  0.10228495     0.06520
H106        H  0.81647276  0.61427254  0.10908999     0.06370
C107        C  0.93528321  0.56194566  0.71869511     0.03410
C108        C  0.91245195  0.59213654  0.71676935    -0.12740
C109        C  0.90632416  0.61363920  0.74710330     0.00910
C110        C  0.92674389  0.60797332  0.77829503    -0.11270
C111        C  0.94754337  0.57630085  0.78289262     0.03400
C112        C  0.95122471  0.55278150  0.75241374    -0.10690
H113        H  0.89834009  0.59821122  0.69176705     0.08990
H114        H  0.92358339  0.62710044  0.80043060     0.06520
H115        H  0.96468276  0.52711855  0.75469483     0.06370
C116        C  0.07728230  0.58559323  0.28777442     0.03410
C117        C  0.10879088  0.60538263  0.27922384    -0.12740
C118        C  0.11266223  0.62206085  0.24583492     0.00910
C119        C  0.08802735  0.61404654  0.21823154    -0.11270
C120        C  0.05880640  0.59010564  0.22404573     0.03400
C121        C  0.05239597  0.57713953  0.25925456    -0.10690
H122        H  0.13030466  0.60883664  0.29889969     0.08990
H123        H  0.09317274  0.62426875  0.19130767     0.06520
H124        H  0.02912655  0.55963439  0.26373138     0.06370
O125        O  0.95498433  0.59106203  0.01888180    -0.72670
O126        O  0.06266835  0.59946416  0.99192291    -0.73650
O127        O  0.99562727  0.59637047  0.95238701    -0.62270
O128        O  0.01996307  0.59561439  0.05926707    -0.70680
O129        O  0.02511374  0.53590117  0.05727362    -0.70230
O130        O  0.99824388  0.53647282  0.95019924    -0.61480
O131        O  0.06562991  0.53957948  0.98907356    -0.73990
O132        O  0.95972245  0.53126448  0.01740936    -0.72770
Cu133      Cu  0.00840538  0.59772102  0.00566292     1.04560
Cu134      Cu  0.01254744  0.53381490  0.00342046     1.04330
C135        C  0.94088851  0.55955872  0.02313864     0.93530
C136        C  0.08063578  0.57058902  0.98479423     0.92670
C137        C  0.99194977  0.56667019  0.93470238     0.84820
C138        C  0.02457951  0.56557383  0.07551975     0.91090
C139        C  0.72840664  0.44068353  0.91430645     0.03410
C140        C  0.75907210  0.44841500  0.93619858    -0.12740
C141        C  0.78922166  0.42494414  0.93536660     0.00910
C142        C  0.78706843  0.39303623  0.91459556    -0.11270
C143        C  0.75777356  0.38641569  0.89100755     0.03400
C144        C  0.72923660  0.41131116  0.89019224    -0.10690
H145        H  0.75951707  0.47255745  0.95296692     0.08990
H146        H  0.80962875  0.37426399  0.91546159     0.06520
H147        H  0.70651443  0.40702751  0.87192093     0.06370
C148        C  0.28956156  0.56377238  0.91329112     0.03410
C149        C  0.25514410  0.55684129  0.92933127    -0.12740
C150        C  0.22413371  0.57681770  0.91825073     0.00910
C151        C  0.22907125  0.60560030  0.89466649    -0.11270
C152        C  0.26218173  0.61105923  0.87753662     0.03400
C153        C  0.29189506  0.58955366  0.88575466    -0.10690
H154        H  0.25260880  0.53732893  0.95082552     0.08990
H155        H  0.20718676  0.62453395  0.88999395     0.06520
H156        H  0.31762095  0.59447618  0.87218709     0.06370
O157        O  0.49365892  0.44992826  0.89295695    -0.72670
O158        O  0.52181760  0.55497920  0.89862152    -0.73650
O159        O  0.56090158  0.48913823  0.89407033    -0.62270
O160        O  0.45407643  0.51542422  0.89775940    -0.70680
O161        O  0.45520152  0.51324135  0.95773987    -0.70230
O162        O  0.56057950  0.48572469  0.95366618    -0.61480
O163        O  0.52281593  0.55227176  0.95853699    -0.73990
O164        O  0.49335882  0.44711277  0.95265595    -0.72770
Cu165      Cu  0.50748708  0.50251106  0.89376389     1.04560
Cu166      Cu  0.50802224  0.49949519  0.95770868     1.04330
C167        C  0.48849783  0.43190740  0.92178808     0.93530
C168        C  0.52777592  0.56990437  0.92936440     0.92670
C169        C  0.57764686  0.48306894  0.92375917     0.84820
C170        C  0.43790489  0.51825789  0.92825533     0.91090
C171        C  0.58586194  0.21764122  0.06566346     0.03410
C172        C  0.57045428  0.25179696  0.05725269    -0.12740
C173        C  0.57513062  0.28159799  0.08147914     0.00910
C174        C  0.59664277  0.27721880  0.11231791    -0.11270
C175        C  0.61396183  0.24466836  0.11894700     0.03400
C176        C  0.60716581  0.21468189  0.09699768    -0.10690
H177        H  0.55607183  0.25547413  0.03201843     0.08990
H178        H  0.60171835  0.30004382  0.13035648     0.06520
H179        H  0.61999776  0.18917989  0.10355030     0.06370
C180        C  0.58124853  0.71783556  0.92385990     0.03410
C181        C  0.57398375  0.74976671  0.94397408    -0.12740
C182        C  0.58886231  0.78326076  0.93318421     0.00910
C183        C  0.61522494  0.78424852  0.90596972    -0.11270
C184        C  0.62428879  0.75282264  0.88719948     0.03400
C185        C  0.60526505  0.72084089  0.89410395    -0.10690
H186        H  0.55718893  0.74935368  0.96768903     0.08990
H187        H  0.62857971  0.80960709  0.89928077     0.06520
H188        H  0.61079325  0.69772593  0.87679975     0.06370
C189        C  0.59160972  0.92969310  0.21561992     0.03410
C190        C  0.57475538  0.94263360  0.24773976    -0.12740
C191        C  0.57646947  0.92208419  0.27989458     0.00910
C192        C  0.59576195  0.88945645  0.27962221    -0.11270
C193        C  0.61265555  0.87699672  0.24833096     0.03400
C194        C  0.60901752  0.89604130  0.21618710    -0.10690
H195        H  0.56168507  0.96881451  0.24794723     0.08990
H196        H  0.59946777  0.87463604  0.30455400     0.06520
H197        H  0.62193336  0.88559934  0.19198332     0.06370
O198        O  0.61239768  0.05173173  0.00566420    -0.72670
O199        O  0.60683142  0.94400134  0.98723616    -0.73650
O200        O  0.60845607  0.00588805  0.94178194    -0.62270
O201        O  0.61186754  0.98826538  0.05016749    -0.70680
O202        O  0.55193015  0.98991982  0.05201773    -0.70230
O203        O  0.54843179  0.00945946  0.94391700    -0.61480
O204        O  0.54645830  0.94677398  0.98800329    -0.73990
O205        O  0.55251551  0.05387819  0.00860083    -0.72770
Cu206      Cu  0.61194809  0.99756843  0.99611342     1.04560
Cu207      Cu  0.54779615  0.00024723  0.99821427     1.04330
C208        C  0.58339070  0.07006975  0.01074783     0.93530
C209        C  0.57566495  0.92849474  0.98480508     0.92670
C210        C  0.57791667  0.00981538  0.92547197     0.84820
C211        C  0.58233599  0.98515048  0.06828892     0.91090
C212        C  0.43436054  0.78452303  0.06283202     0.03410
C213        C  0.45385615  0.75206932  0.05503004    -0.12740
C214        C  0.44291329  0.71871454  0.07075561     0.00910
C215        C  0.41646971  0.71895969  0.09781112    -0.11270
C216        C  0.39759139  0.75031320  0.10613491     0.03400
C217        C  0.40462221  0.78179169  0.08688736    -0.10690
H218        H  0.47710838  0.75217083  0.03744000     0.08990
H219        H  0.40968659  0.69411218  0.11176160     0.06520
H220        H  0.38740871  0.80493874  0.09225072     0.06370
C221        C  0.42361544  0.28810533  0.92968286     0.03410
C222        C  0.38937063  0.28891934  0.91216811    -0.12740
C223        C  0.36839261  0.25759242  0.90719430     0.00910
C224        C  0.37775885  0.22603284  0.92503017    -0.11270
C225        C  0.40828895  0.22541613  0.94754146     0.03400
C226        C  0.43230679  0.25555891  0.94793700    -0.10690
H227        H  0.37978628  0.31333709  0.89936024     0.08990
H228        H  0.36251938  0.20127220  0.91989295     0.06520
H229        H  0.45769719  0.25185188  0.96147075     0.06370
C230        C  0.43918648  0.93594209  0.78096051     0.03410
C231        C  0.45258319  0.94548467  0.74631118    -0.12740
C232        C  0.44460863  0.92308759  0.71579078     0.00910
C233        C  0.42419124  0.89126438  0.72116008    -0.11270
C234        C  0.40765523  0.88414714  0.75428322     0.03400
C235        C  0.41691544  0.90518019  0.78437825    -0.10690
H236        H  0.46816711  0.97024859  0.74307495     0.08990
H237        H  0.41890324  0.87303232  0.69870214     0.06520
H238        H  0.40580206  0.89823441  0.81056084     0.06370
O239        O  0.40528543  0.01603179  0.05129615    -0.72670
O240        O  0.40896563  0.99187349  0.94448581    -0.73650
O241        O  0.40872981  0.95017841  0.00995211    -0.62270
O242        O  0.40596815  0.05735594  0.98655273    -0.70680
O243        O  0.46584843  0.05965151  0.98881353    -0.70230
O244        O  0.46913077  0.95237351  0.01056994    -0.61480
O245        O  0.46902226  0.99420987  0.94562641    -0.73990
O246        O  0.46564200  0.01806010  0.05210302    -0.72770
Cu247      Cu  0.40515534  0.00364901  0.99788650     1.04560
Cu248      Cu  0.46944653  0.00603044  0.99919762     1.04330
C249        C  0.43516968  0.02182678  0.06828334     0.93530
C250        C  0.43936401  0.98982100  0.92781104     0.92670
C251        C  0.43941914  0.93458701  0.01462215     0.84820
C252        C  0.43558435  0.07588785  0.98471981     0.91090
C253        C  0.79399819  0.92496487  0.57769593     0.03410
C254        C  0.76242742  0.92990025  0.55584104    -0.12740
C255        C  0.73248694  0.90540116  0.55693564     0.00910
C256        C  0.73318009  0.87684767  0.58144001    -0.11270
C257        C  0.76229693  0.87272565  0.60505730     0.03400
C258        C  0.79293131  0.89521568  0.60146145    -0.10690
H259        H  0.75948123  0.95252566  0.53840432     0.08990
H260        H  0.71034739  0.85838918  0.58290792     0.06520
H261        H  0.81616305  0.88914988  0.61815277     0.06370
C262        C  0.92085165  0.27566014  0.56210476     0.03410
C263        C  0.89550035  0.27558302  0.59027509    -0.12740
C264        C  0.88796952  0.24400564  0.60921434     0.00910
C265        C  0.90747811  0.21254320  0.60140354    -0.11270
C266        C  0.93327410  0.21157180  0.57329352     0.03400
C267        C  0.93956264  0.24346776  0.55313760    -0.10690
H268        H  0.88166480  0.30042922  0.59762446     0.08990
H269        H  0.90207118  0.18840564  0.61706392     0.06520
H270        H  0.95802213  0.24331158  0.53041909     0.06370
C271        C  0.08659838  0.71701267  0.57264522     0.03410
C272        C  0.11294876  0.71831447  0.60030220    -0.12740
C273        C  0.11839390  0.75017423  0.62043958     0.00910
C274        C  0.09683841  0.78026616  0.61385345    -0.11270
C275        C  0.07092555  0.77969246  0.58618277     0.03400
C276        C  0.06557583  0.74796223  0.56545671    -0.10690
H277        H  0.12933142  0.69469609  0.60591967     0.08990
H278        H  0.10188247  0.80516815  0.62890633     0.06520
H279        H  0.04613763  0.74767996  0.54334817     0.06370
O280        O  0.95824700  0.98150643  0.54061127    -0.72670
O281        O  0.06409252  0.01298528  0.53074815    -0.73650
O282        O  0.02594845  0.94442906  0.53531872    -0.62270
O283        O  0.99538075  0.04911216  0.53524206    -0.70680
O284        O  0.00125673  0.05209485  0.59488796    -0.70230
O285        O  0.03146021  0.94657400  0.59493429    -0.61480
O286        O  0.06910304  0.01500008  0.59048876    -0.73990
O287        O  0.96400532  0.98456061  0.59995962    -0.72770
Cu288      Cu  0.01091108  0.99688198  0.53345512     1.04560
Cu289      Cu  0.01677496  0.99952934  0.59710593     1.04330
C290        C  0.94420656  0.97847044  0.57210773     0.93530
C291        C  0.08297568  0.01955788  0.55920371     0.92670
C292        C  0.03323339  0.92880407  0.56510259     0.84820
C293        C  0.99279059  0.06684393  0.56487323     0.91090
C294        C  0.59485083  0.04779613  0.77695966     0.03410
C295        C  0.62078538  0.07560602  0.78188874    -0.12740
C296        C  0.62723808  0.10094244  0.75479607     0.00910
C297        C  0.60653123  0.09944357  0.72311853    -0.11270
C298        C  0.58077153  0.07174839  0.71700084     0.03400
C299        C  0.57495062  0.04565978  0.74419513    -0.10690
H300        H  0.63488069  0.07839419  0.80756402     0.08990
H301        H  0.61155156  0.11936154  0.70227874     0.06520
H302        H  0.55547728  0.02387475  0.74004716     0.06370
C303        C  0.43731562  0.07503568  0.28260056     0.03410
C304        C  0.44467710  0.05625697  0.24988684    -0.12740
C305        C  0.42824247  0.06771706  0.21735150     0.00910
C306        C  0.40447810  0.09708107  0.21787361    -0.11270
C307        C  0.39669492  0.11514511  0.25000760     0.03400
C308        C  0.41299132  0.10422862  0.28211512    -0.10690
H309        H  0.46234320  0.03295293  0.24966800     0.08990
H310        H  0.39136125  0.10558141  0.19304410     0.06520
H311        H  0.40607205  0.11812318  0.30709098     0.06370
C312        C  0.29106117  0.09264233  0.56046333     0.03410
C313        C  0.25815313  0.07562055  0.55035364    -0.12740
C314        C  0.22661306  0.08186251  0.57097154     0.00910
C315        C  0.22955662  0.10139925  0.60333835    -0.11270
C316        C  0.26113131  0.12155553  0.61169639     0.03400
C317        C  0.29134923  0.11796161  0.58891866    -0.10690
H318        H  0.25710864  0.05800667  0.52679929     0.08990
H319        H  0.20606596  0.10232553  0.62100978     0.06520
H320        H  0.31561875  0.13398602  0.59355400     0.06370
O321        O  0.52694199  0.10434984  0.55090786    -0.72670
O322        O  0.49608202  0.10012480  0.44447783    -0.73650
O323        O  0.45960842  0.10559924  0.51203320    -0.62270
O324        O  0.56436736  0.10150185  0.48267030    -0.70680
O325        O  0.56153710  0.04151646  0.48362198    -0.70230
O326        O  0.45571937  0.04592339  0.51471399    -0.61480
O327        O  0.49265298  0.04022936  0.44779373    -0.73990
O328        O  0.52402659  0.04435013  0.55196834    -0.72770
Cu329      Cu  0.51187983  0.10498317  0.49751167     1.04560
Cu330      Cu  0.50854398  0.04094755  0.49972302     1.04330
C331        C  0.53012853  0.07449750  0.56807446     0.93530
C332        C  0.48877344  0.06926487  0.42985341     0.92670
C333        C  0.44063799  0.07705815  0.51691567     0.84820
C334        C  0.57942550  0.07085940  0.47781450     0.91090
C335        C  0.29703374  0.92648643  0.41975694     0.03410
C336        C  0.29595778  0.89870482  0.39388600    -0.12740
C337        C  0.26451179  0.89194907  0.37387373     0.00910
C338        C  0.23288826  0.91081546  0.38191488    -0.11270
C339        C  0.23085597  0.93445471  0.41200129     0.03400
C340        C  0.26382041  0.94263058  0.43077758    -0.10690
H341        H  0.31994442  0.88248216  0.38889187     0.08990
H342        H  0.20881694  0.90473710  0.36594513     0.06520
H343        H  0.26407899  0.96044533  0.45394910     0.06370
C344        C  0.92465402  0.71240928  0.43527520     0.03410
C345        C  0.90066953  0.70903246  0.40598155    -0.12740
C346        C  0.88959728  0.73939546  0.38697193     0.00910
C347        C  0.90422212  0.77332849  0.39554100    -0.11270
C348        C  0.92655696  0.77849003  0.42601542     0.03400
C349        C  0.93712080  0.74737236  0.44597031    -0.10690
H350        H  0.89031571  0.68253203  0.39810766     0.08990
H351        H  0.89710952  0.79607925  0.37874088     0.06520
H352        H  0.95465919  0.75018500  0.46942350     0.06370
C353        C  0.72895116  0.07399380  0.43206272     0.03410
C354        C  0.72876787  0.09901513  0.40389553    -0.12740
C355        C  0.76121504  0.11155913  0.38871476     0.00910
C356        C  0.79433459  0.09919400  0.40198291    -0.11270
C357        C  0.79540000  0.07325853  0.42918920     0.03400
C358        C  0.76252221  0.06009227  0.44415944    -0.10690
H359        H  0.70300029  0.10946030  0.39417255     0.08990
H360        H  0.81954154  0.10950600  0.39094568     0.06520
H361        H  0.76316081  0.03945084  0.46476043     0.06370
C362        C  0.09052155  0.27947238  0.43201060     0.03410
C363        C  0.11195741  0.27749433  0.40076549    -0.12740
C364        C  0.11779822  0.24451644  0.38316703     0.00910
C365        C  0.09962595  0.21345594  0.39461192    -0.11270
C366        C  0.07683103  0.21428287  0.42503873     0.03400
C367        C  0.07247473  0.24755600  0.44410817    -0.10690
H368        H  0.12481423  0.30169917  0.39028128     0.08990
H369        H  0.10430428  0.18809089  0.38042059     0.06520
H370        H  0.05610649  0.24849992  0.46839821     0.06370
O371        O  0.99169377  0.94235447  0.40469794    -0.72670
O372        O  0.02225232  0.04954658  0.40641455    -0.73650
O373        O  0.06061090  0.98172613  0.40192460    -0.62270
O374        O  0.95495147  0.01049310  0.40820216    -0.70680
O375        O  0.95806912  0.01046497  0.46809809    -0.70230
O376        O  0.06367722  0.97932080  0.46170566    -0.61480
O377        O  0.02649419  0.04731955  0.46609651    -0.73990
O378        O  0.99428172  0.94157587  0.46449313    -0.72770
Cu379      Cu  0.00735588  0.99599263  0.40322583     1.04560
Cu380      Cu  0.01079716  0.99453633  0.46707272     1.04330
C381        C  0.98766059  0.92523332  0.43450311     0.93530
C382        C  0.02891358  0.06523522  0.43679908     0.92670
C383        C  0.07884616  0.97588801  0.43078912     0.84820
C384        C  0.94003783  0.01547316  0.43897469     0.91090
C385        C  0.72293712  0.24897214  0.22962932     0.03410
C386        C  0.75127630  0.27442817  0.22804665    -0.12740
C387        C  0.77945176  0.27387160  0.25352010     0.00910
C388        C  0.77859479  0.24860715  0.28134459    -0.11270
C389        C  0.75091342  0.22251784  0.28224923     0.03400
C390        C  0.72334852  0.22228554  0.25619308    -0.10690
H391        H  0.75141883  0.29468756  0.20698454     0.08990
H392        H  0.79932175  0.24914330  0.30226465     0.06520
H393        H  0.70234981  0.20149261  0.25662328     0.06370
C394        C  0.75335783  0.72233682  0.21888998     0.03410
C395        C  0.72799237  0.75013155  0.22147666    -0.12740
C396        C  0.72760338  0.77279142  0.25196150     0.00910
C397        C  0.75375155  0.76818561  0.27920677    -0.11270
C398        C  0.78093687  0.74190986  0.27524716     0.03400
C399        C  0.77977351  0.71814439  0.24569694    -0.10690
H400        H  0.70782534  0.75338992  0.20027817     0.08990
H401        H  0.75295180  0.78471131  0.30348112     0.06520
H402        H  0.79886188  0.69595717  0.24385994     0.06370
C403        C  0.28605601  0.74997589  0.21479531     0.03410
C404        C  0.25916595  0.72300309  0.21467990    -0.12740
C405        C  0.23291419  0.72210833  0.24197003     0.00910
C406        C  0.23333242  0.74875100  0.26922620    -0.11270
C407        C  0.26103112  0.77502251  0.27019980     0.03400
C408        C  0.28734560  0.77551973  0.24288872    -0.10690
H409        H  0.25834426  0.70311001  0.19303639     0.08990
H410        H  0.21176158  0.74935503  0.28916994     0.06520
H411        H  0.30847135  0.79621564  0.24313804     0.06370
C412        C  0.23024485  0.76225730  0.72862114     0.03410
C413        C  0.22964366  0.73379495  0.75336624    -0.12740
C414        C  0.26028405  0.72606772  0.77441394     0.00910
C415        C  0.29083614  0.74901288  0.77252140    -0.11270
C416        C  0.29151060  0.77825726  0.74890476     0.03400
C417        C  0.26124950  0.78464668  0.72664389    -0.10690
H418        H  0.20536644  0.71742864  0.75573704     0.08990
H419        H  0.31381438  0.74476518  0.79030164     0.06520
H420        H  0.26182189  0.80704667  0.70789611     0.06370
C421        C  0.24979707  0.22745532  0.72835268     0.03410
C422        C  0.22670925  0.25748013  0.72471736    -0.12740
C423        C  0.22352022  0.28281481  0.75286067     0.00910
C424        C  0.24677060  0.28121435  0.78259102    -0.11270
C425        C  0.27156427  0.25295858  0.78542729     0.03400
C426        C  0.27170918  0.22517987  0.75950321    -0.10690
H427        H  0.21068567  0.26106386  0.70052279     0.08990
H428        H  0.24529662  0.30171942  0.80369804     0.06520
H429        H  0.28920132  0.20207853  0.76366147     0.06370
C430        C  0.73397696  0.21622305  0.75792849     0.03410
C431        C  0.73810752  0.24159480  0.78596126    -0.12740
C432        C  0.76258846  0.27099107  0.78282001     0.00910
C433        C  0.78464750  0.27280620  0.75172070    -0.11270
C434        C  0.78386289  0.24477597  0.72579872     0.03400
C435        C  0.75763711  0.21729983  0.72836456    -0.10690
H436        H  0.72180866  0.23846370  0.81011601     0.08990
H437        H  0.80247319  0.29565485  0.74736105     0.06520
H438        H  0.75594490  0.19647644  0.70756820     0.06370
C439        C  0.79173195  0.71938998  0.75459266     0.03410
C440        C  0.76510244  0.72135506  0.78160063    -0.12740
C441        C  0.73946733  0.74937680  0.78116789     0.00910
C442        C  0.74275229  0.77683492  0.75543579    -0.11270
C443        C  0.76732665  0.77363828  0.72634102     0.03400
C444        C  0.79054874  0.74351093  0.72563009    -0.10690
H445        H  0.76437567  0.70127590  0.80279449     0.08990
H446        H  0.72547218  0.80030295  0.75809438     0.06520
H447        H  0.80834774  0.73874668  0.70297025     0.06370
C448        C  0.25877690  0.27597767  0.22183792     0.03410
C449        C  0.28512864  0.24887691  0.22233190    -0.12740
C450        C  0.28284601  0.22089288  0.24742633     0.00910
C451        C  0.25435179  0.22045098  0.27240433    -0.11270
C452        C  0.22766659  0.24749661  0.27224106     0.03400
C453        C  0.23084945  0.27602287  0.24761781    -0.10690
H454        H  0.30743166  0.24955517  0.20315954     0.08990
H455        H  0.25341025  0.19943023  0.29259755     0.06520
H456        H  0.21212885  0.29846748  0.24864269     0.06370
C457        C  0.01427872  0.13142648  0.43256124    -0.05500
C458        C  0.04027844  0.10420415  0.43826801     0.00430
C459        C  0.07690413  0.11450524  0.44505928    -0.08150
C460        C  0.08661868  0.15146049  0.44502914    -0.05520
C461        C  0.06134974  0.17862915  0.43685242     0.00410
C462        C  0.02426822  0.16862648  0.43150555    -0.08060
C463        C  0.99574062  0.19702335  0.42365114     0.62320
H464        H  0.98622374  0.12322023  0.42802319     0.13020
H465        H  0.11490456  0.15937318  0.44859780     0.13030
C466        C  0.10616714  0.08622996  0.44919314     0.62560
F467        F  0.96151578  0.18174845  0.41855642    -0.22610
F468        F  0.00492464  0.21572342  0.39269349    -0.19940
F469        F  0.99373657  0.22106411  0.45242543    -0.19620
F470        F  0.10733996  0.06543343  0.41794224    -0.19670
F471        F  0.09828145  0.06444561  0.47834880    -0.19990
F472        F  0.14030966  0.10152154  0.45476856    -0.22660
C473        C  0.13472292  0.24750837  0.31857392    -0.05500
C474        C  0.14543315  0.24231220  0.35449615     0.00430
C475        C  0.18245013  0.23628745  0.36291662    -0.08150
C476        C  0.20835844  0.24040746  0.33554874    -0.05520
C477        C  0.19809368  0.24640647  0.29949272     0.00410
C478        C  0.16043431  0.24797412  0.29039287    -0.08060
C479        C  0.14695909  0.24811817  0.25147654     0.62320
H480        H  0.10598717  0.25087220  0.31274872     0.13020
H481        H  0.23705090  0.23814974  0.34204150     0.13030
C482        C  0.19433402  0.22413063  0.40023213     0.62560
F483        F  0.11038226  0.23879476  0.24930909    -0.22610
F484        F  0.16609117  0.22320973  0.23095513    -0.19940
F485        F  0.15109920  0.28216595  0.23684686    -0.19620
F486        F  0.17705844  0.19186387  0.40853633    -0.19670
F487        F  0.18533650  0.24983618  0.42578933    -0.19990
F488        F  0.23157819  0.21860629  0.40218239    -0.22660
C489        C  0.83787202  0.02245086  0.42437505    -0.05500
C490        C  0.83119158  0.05738708  0.43759190     0.00430
C491        C  0.85985768  0.07771449  0.45397781    -0.08150
C492        C  0.89515883  0.06292337  0.45440276    -0.05520
C493        C  0.90193480  0.02819889  0.44048727     0.00410
C494        C  0.87261496  0.00699502  0.42690165    -0.08060
C495        C  0.87756326  0.96737869  0.41818637     0.62320
H496        H  0.81549553  0.00724099  0.41236110     0.13020
H497        H  0.91790429  0.07864848  0.46496170     0.13030
C498        C  0.85301972  0.11435782  0.47157685     0.62560
F499        F  0.84507644  0.95054130  0.40854856    -0.22610
F500        F  0.89085556  0.95065975  0.44878481    -0.19940
F501        F  0.90177955  0.96330783  0.38989946    -0.19620
F502        F  0.82512439  0.11120600  0.49648156    -0.19670
F503        F  0.84346784  0.13957033  0.44595118    -0.19990
F504        F  0.88366155  0.12734516  0.48945073    -0.22660
C505        C  0.77341116  0.16369891  0.30151337    -0.05500
C506        C  0.75230375  0.19412187  0.30932899     0.00430
C507        C  0.73418826  0.19752712  0.34268780    -0.08150
C508        C  0.73902447  0.17036903  0.36826804    -0.05520
C509        C  0.75990324  0.13950553  0.36061369     0.00410
C510        C  0.77696839  0.13555304  0.32637124    -0.08060
C511        C  0.79849983  0.10220602  0.31528417     0.62320
H512        H  0.78710770  0.16219120  0.27560507     0.13020
H513        H  0.72606500  0.17276853  0.39446166     0.13030
C514        C  0.70933477  0.22923597  0.35073508     0.62560
F515        F  0.80098900  0.09923029  0.27801964    -0.22610
F516        F  0.78183846  0.07095997  0.32760609    -0.19940
F517        F  0.83352476  0.10461916  0.32898521    -0.19620
F518        F  0.68050969  0.22868435  0.32663392    -0.19670
F519        F  0.72835102  0.26148665  0.34736454    -0.19990
F520        F  0.69516018  0.22778034  0.38535593    -0.22660
C521        C  0.97675135  0.82130670  0.44346566    -0.05500
C522        C  0.94007440  0.81629032  0.43431617     0.00430
C523        C  0.91879019  0.84786959  0.42840006    -0.08150
C524        C  0.93646573  0.88168589  0.42496238    -0.05520
C525        C  0.97310924  0.88699061  0.43446668     0.00410
C526        C  0.99294894  0.85603364  0.44569073    -0.08060
C527        C  0.03101473  0.85681052  0.46028884     0.62320
H528        H  0.99332036  0.79775389  0.44885579     0.13020
H529        H  0.92074139  0.90460918  0.41665737     0.13030
C530        C  0.87739662  0.84809235  0.42824983     0.62560
F531        F  0.03035208  0.84173293  0.49423747    -0.22610
F532        F  0.04542210  0.89124923  0.46283155    -0.19940
F533        F  0.05282916  0.83572537  0.43834592    -0.19620
F534        F  0.86258448  0.81599312  0.44053721    -0.19670
F535        F  0.86474518  0.85478732  0.39370959    -0.19990
F536        F  0.86521595  0.87529629  0.45108817    -0.22660
C537        C  0.87253446  0.74389690  0.32292569    -0.05500
C538        C  0.86180569  0.73639413  0.35839509     0.00430
C539        C  0.82458198  0.73019770  0.36652989    -0.08150
C540        C  0.79917282  0.73099033  0.33818302    -0.05520
C541        C  0.80982250  0.73873241  0.30271305     0.00410
C542        C  0.84701146  0.74564899  0.29471265    -0.08060
C543        C  0.85962291  0.75645458  0.25713418     0.62320
H544        H  0.90113493  0.74917694  0.31775646     0.13020
H545        H  0.77051724  0.72624820  0.34353195     0.13030
C546        C  0.81149996  0.72441274  0.40505454     0.62560
F547        F  0.89569575  0.76775827  0.25715701    -0.22610
F548        F  0.83869622  0.78470863  0.24450963    -0.19940
F549        F  0.85658622  0.72733037  0.23361548    -0.19620
F550        F  0.82302085  0.75285026  0.42687837    -0.19670
F551        F  0.82522396  0.69241947  0.41834500    -0.19990
F552        F  0.77384809  0.72252979  0.40702844    -0.22660
C553        C  0.16501879  0.92063439  0.41801880    -0.05500
C554        C  0.19312223  0.94638377  0.42332309     0.00430
C555        C  0.18279598  0.98215870  0.43355387    -0.08150
C556        C  0.14519760  0.98972622  0.43819005    -0.05520
C557        C  0.11766037  0.96474045  0.42837877     0.00410
C558        C  0.12820202  0.93001133  0.41623220    -0.08060
C559        C  0.10321152  0.90197624  0.39890735     0.62320
H560        H  0.17201196  0.89277882  0.41190334     0.13020
H561        H  0.13711743  0.01577309  0.44857332     0.13030
C562        C  0.21019844  0.01276426  0.43867165     0.62560
F563        F  0.11343362  0.89718027  0.36321624    -0.22610
F564        F  0.06687054  0.91113916  0.39934920    -0.19940
F565        F  0.10748546  0.86947558  0.41648703    -0.19620
F566        F  0.23516313  0.01288001  0.41070164    -0.19670
F567        F  0.22799748  0.00899720  0.47136814    -0.19990
F568        F  0.19333846  0.04618073  0.43893235    -0.22660
C569        C  0.25683965  0.83967189  0.28555445    -0.05500
C570        C  0.26116796  0.80408554  0.29773289     0.00430
C571        C  0.26799261  0.79747201  0.33478118    -0.08150
C572        C  0.26862787  0.82709467  0.35880783    -0.05520
C573        C  0.26370523  0.86261313  0.34665439     0.00410
C574        C  0.25853499  0.86935007  0.30939824    -0.08060
C575        C  0.25624104  0.90757314  0.29464493     0.62320
H576        H  0.25236146  0.84398236  0.25694543     0.13020
H577        H  0.27300125  0.82282586  0.38743712     0.13030
C578        C  0.27594149  0.75972044  0.34869597     0.62560
F579        F  0.25740582  0.90780530  0.25723189    -0.22610
F580        F  0.28529006  0.92812914  0.30737077    -0.19940
F581        F  0.22401201  0.92355182  0.30521400    -0.19620
F582        F  0.30378343  0.74436240  0.32875282    -0.19670
F583        F  0.24515004  0.73812709  0.34591025    -0.19990
F584        F  0.28664192  0.76039362  0.38463304    -0.22660
C585        C  0.64506777  0.08338999  0.48983632    -0.05500
C586        C  0.61818711  0.06942462  0.46638730     0.00430
C587        C  0.62877844  0.05430461  0.43280799    -0.08150
C588        C  0.66615694  0.05097307  0.42509567    -0.05520
C589        C  0.69309108  0.06519241  0.44844406     0.00410
C590        C  0.68247017  0.08115547  0.48170027    -0.08060
C591        C  0.71044437  0.09693691  0.50788890     0.62320
H592        H  0.63660186  0.09721221  0.51416385     0.13020
H593        H  0.67464429  0.04096379  0.39883287     0.13030
C594        C  0.60119999  0.04884087  0.40267244     0.62560
F595        F  0.69426432  0.11163162  0.53839020    -0.22610
F596        F  0.73038875  0.12400909  0.49130211    -0.19940
F597        F  0.73373085  0.06994068  0.51902777    -0.19620
F598        F  0.58803854  0.08248706  0.39347810    -0.19670
F599        F  0.57258953  0.02701324  0.41346291    -0.19990
F600        F  0.61656570  0.03331278  0.37215588    -0.22660
C601        C  0.34223705  0.11080926  0.52173020    -0.05500
C602        C  0.32620536  0.08408318  0.54307980     0.00430
C603        C  0.34694840  0.05393117  0.55397920    -0.08150
C604        C  0.38387856  0.05212562  0.54386244    -0.05520
C605        C  0.40083512  0.08008084  0.52437882     0.00410
C606        C  0.37930984  0.10969807  0.51222947    -0.08060
C607        C  0.39492602  0.14101431  0.49054309     0.62320
H608        H  0.32579991  0.13393345  0.51454623     0.13020
H609        H  0.40022468  0.02947745  0.55250538     0.13030
C610        C  0.33039557  0.02459139  0.57743986     0.62560
F611        F  0.36782606  0.16326359  0.47732550    -0.22610
F612        F  0.41435693  0.12824378  0.46120928    -0.19940
F613        F  0.41753494  0.16189082  0.51238056    -0.19620
F614        F  0.30205602  0.00768837  0.55908915    -0.19670
F615        F  0.31733397  0.03942591  0.60926295    -0.19990
F616        F  0.35567458  0.99865410  0.58642084    -0.22660
C617        C  0.22707175  0.16581986  0.64859643    -0.05500
C618        C  0.26035712  0.14821531  0.64227696     0.00430
C619        C  0.29024430  0.15609525  0.66580438    -0.08150
C620        C  0.28624789  0.18395726  0.69157590    -0.05520
C621        C  0.25204458  0.19914735  0.69947353     0.00410
C622        C  0.22131603  0.18713737  0.67926463    -0.08060
C623        C  0.18204243  0.19219159  0.69100962     0.62320
H624        H  0.20414427  0.16118141  0.63066778     0.13020
H625        H  0.31005234  0.19290416  0.70661158     0.13030
C626        C  0.32583211  0.13522368  0.66628513     0.62560
F627        F  0.16148696  0.16172602  0.68224109    -0.22610
F628        F  0.16696738  0.22152261  0.67363748    -0.19940
F629        F  0.17970695  0.19661199  0.72798333    -0.19620
F630        F  0.35112167  0.15199577  0.64426092    -0.19670
F631        F  0.32077491  0.09966007  0.65540539    -0.19990
F632        F  0.34005435  0.13436284  0.70100318    -0.22660
C633        C  0.50065584  0.07069697  0.36398332    -0.05500
C634        C  0.47530486  0.06670464  0.39203046     0.00430
C635        C  0.43815381  0.06014968  0.38312076    -0.08150
C636        C  0.42787905  0.05902550  0.34651416    -0.05520
C637        C  0.45289148  0.06516786  0.31844457     0.00410
C638        C  0.49022838  0.07022179  0.32721647    -0.08060
C639        C  0.51878624  0.07642916  0.29822133     0.62320
H640        H  0.52874168  0.07505881  0.37117191     0.13020
H641        H  0.39924170  0.05566938  0.33974771     0.13030
C642        C  0.40754302  0.05720267  0.41050880     0.62560
F643        F  0.55286946  0.08348153  0.31295499    -0.22610
F644        F  0.50926589  0.10566100  0.27714617    -0.19940
F645        F  0.52157607  0.04585560  0.27664200    -0.19620
F646        F  0.38515594  0.08698036  0.40739033    -0.19670
F647        F  0.41963773  0.05511531  0.44563083    -0.19990
F648        F  0.38693835  0.02662632  0.40355178    -0.22660
C649        C  0.33248506  0.13134720  0.24353350    -0.05500
C650        C  0.36832019  0.14293348  0.25022530     0.00430
C651        C  0.37639164  0.18012810  0.25485207    -0.08150
C652        C  0.34741812  0.20469986  0.25450031    -0.05520
C653        C  0.31136541  0.19307231  0.24842080     0.00410
C654        C  0.30367050  0.15594433  0.24181737    -0.08060
C655        C  0.26578155  0.14231575  0.23153151     0.62320
H656        H  0.32736863  0.10267241  0.23936212     0.13020
H657        H  0.35266687  0.23334125  0.25866563     0.13030
C658        C  0.41538684  0.19376511  0.25863927     0.62560
F659        F  0.26653236  0.10692914  0.21888494    -0.22610
F660        F  0.25136715  0.16352285  0.20443284    -0.19940
F661        F  0.24307976  0.14331031  0.26124403    -0.19620
F662        F  0.43576770  0.18178472  0.22952819    -0.19670
F663        F  0.43063368  0.18104742  0.29023693    -0.19990
F664        F  0.41723640  0.23122276  0.25954776    -0.22660
C665        C  0.59026599  0.06732209  0.65167481    -0.05500
C666        C  0.56494299  0.06887680  0.67985503     0.00430
C667        C  0.52754497  0.07373624  0.67130214    -0.08150
C668        C  0.51697314  0.07520061  0.63438726    -0.05520
C669        C  0.54281585  0.07404180  0.60631518     0.00410
C670        C  0.58016804  0.07055633  0.61538630    -0.08060
C671        C  0.61083772  0.07319153  0.58840867     0.62320
H672        H  0.61896794  0.06508948  0.65841703     0.13020
H673        H  0.48850159  0.07794773  0.62716402     0.13030
C674        C  0.49939798  0.07924786  0.70076058     0.62560
F675        F  0.62512894  0.10792225  0.58927821    -0.22610
F676        F  0.59930022  0.06520194  0.55389375    -0.19940
F677        F  0.63817074  0.04923045  0.59737668    -0.19620
F678        F  0.50990672  0.10783127  0.72295436    -0.19670
F679        F  0.49612043  0.04824023  0.72114699    -0.19990
F680        F  0.46541621  0.08708076  0.68656921    -0.22660
C681        C  0.71768767  0.15154768  0.76071341    -0.05500
C682        C  0.70584813  0.18749522  0.75984837     0.00430
C683        C  0.66805269  0.19504828  0.75791690    -0.08150
C684        C  0.64324473  0.16588710  0.75821070    -0.05520
C685        C  0.65509458  0.12986121  0.75911290     0.00410
C686        C  0.69293935  0.12239607  0.75974191    -0.08060
C687        C  0.70735416  0.08400971  0.75833039     0.62320
H688        H  0.74674303  0.14654664  0.76163262     0.13020
H689        H  0.61420879  0.17089242  0.75686253     0.13030
C690        C  0.65394185  0.23341207  0.75381836     0.62560
F691        F  0.74465866  0.08332541  0.75276096    -0.22610
F692        F  0.69095237  0.06482521  0.73032925    -0.19940
F693        F  0.70024100  0.06712941  0.79072209    -0.19620
F694        F  0.67144807  0.25031456  0.72541340    -0.19670
F695        F  0.66006100  0.25292396  0.78527136    -0.19990
F696        F  0.61685239  0.23387300  0.74678873    -0.22660
C697        C  0.12417830  0.07251116  0.55814313    -0.05500
C698        C  0.12038403  0.03483106  0.55649913     0.00430
C699        C  0.15210440  0.01320192  0.55540250    -0.08150
C700        C  0.18658966  0.02975967  0.55771063    -0.05520
C701        C  0.19033858  0.06728604  0.56057833     0.00410
C702        C  0.15865765  0.08931766  0.55903274    -0.08060
C703        C  0.15941610  0.13042704  0.55859421     0.62320
H704        H  0.09985257  0.08905703  0.55871426     0.13020
H705        H  0.21098504  0.01340616  0.55834677     0.13030
C706        C  0.14974168  0.97301304  0.55006127     0.62560
F707        F  0.13706910  0.14260375  0.53111994    -0.22610
F708        F  0.19383976  0.14458385  0.55265773    -0.19940
F709        F  0.14640549  0.14351982  0.59121225    -0.19620
F710        F  0.13902852  0.96677765  0.51483995    -0.19670
F711        F  0.12490303  0.95838079  0.57403387    -0.19990
F712        F  0.18294755  0.95620290  0.55530180    -0.22660
C713        C  0.07954684  0.83665450  0.55497541    -0.05500
C714        C  0.05626537  0.81497860  0.57531891     0.00430
C715        C  0.02441296  0.82991856  0.59043433    -0.08150
C716        C  0.01763694  0.86713795  0.58560902    -0.05520
C717        C  0.04145358  0.88937498  0.56566374     0.00410
C718        C  0.07240197  0.87324719  0.54886116    -0.08060
C719        C  0.09965088  0.89228383  0.52502661     0.62320
H720        H  0.10426645  0.82477512  0.54414305     0.13020
H721        H  0.99386827  0.87932368  0.59789531     0.13030
C722        C  0.99845327  0.80661106  0.61210726     0.62560
F723        F  0.10604853  0.87182274  0.49421496    -0.22610
F724        F  0.13229536  0.89564734  0.54345375    -0.19940
F725        F  0.08767097  0.92560961  0.51423820    -0.19620
F726        F  0.01612511  0.79337090  0.64225552    -0.19670
F727        F  0.98645974  0.77784256  0.59092297    -0.19990
F728        F  0.96830089  0.82586561  0.62355743    -0.22660
C729        C  0.13732070  0.75587221  0.68402977    -0.05500
C730        C  0.14754691  0.75354747  0.64764437     0.00430
C731        C  0.18426187  0.75963418  0.63770785    -0.08150
C732        C  0.21032627  0.76432864  0.66516166    -0.05520
C733        C  0.20042284  0.76512378  0.70181541     0.00410
C734        C  0.16299301  0.76307058  0.71133098    -0.08060
C735        C  0.14854440  0.76929660  0.74929497     0.62320
H736        H  0.10871680  0.75328250  0.69101460     0.13020
H737        H  0.23893055  0.76610024  0.65816258     0.13030
C738        C  0.19581896  0.76134321  0.59838213     0.62560
F739        F  0.12028649  0.79390790  0.74814045    -0.22610
F740        F  0.17466263  0.78319994  0.77268105    -0.19940
F741        F  0.13535268  0.73697876  0.76284223    -0.19620
F742        F  0.17537620  0.78692214  0.58041279    -0.19670
F743        F  0.19064787  0.72790428  0.58217519    -0.19990
F744        F  0.23222803  0.77079867  0.59487421    -0.22660
C745        C  0.00199768  0.13377073  0.56733656    -0.05500
C746        C  0.97806758  0.10408274  0.56437871     0.00430
C747        C  0.94020046  0.11009896  0.56133881    -0.08150
C748        C  0.92743119  0.14588666  0.56080513    -0.05520
C749        C  0.95093488  0.17592589  0.56521525     0.00410
C750        C  0.98908824  0.16981188  0.56837132    -0.08060
C751        C  0.01603504  0.20071584  0.57422796     0.62320
H752        H  0.03090705  0.12838229  0.56949238     0.13020
H753        H  0.89839816  0.15073604  0.55896839     0.13030
C754        C  0.91329230  0.07864275  0.56090247     0.62560
F755        F  0.05078489  0.18821145  0.58143990    -0.22610
F756        F  0.00530848  0.22194531  0.60324391    -0.19940
F757        F  0.01791290  0.22165821  0.54351721    -0.19620
F758        F  0.91703940  0.05897068  0.59232986    -0.19670
F759        F  0.92002288  0.05632665  0.53159405    -0.19990
F760        F  0.87753085  0.09015523  0.55870537    -0.22660
C761        C  0.87291957  0.23960826  0.67383644    -0.05500
C762        C  0.86057870  0.24415289  0.63835966     0.00430
C763        C  0.82274285  0.24695743  0.63128203    -0.08150
C764        C  0.79852632  0.24747871  0.66070946    -0.05520
C765        C  0.81097701  0.24343775  0.69634413     0.00410
C766        C  0.84858878  0.23743027  0.70289456    -0.08060
C767        C  0.86437405  0.22722048  0.73935525     0.62320
H768        H  0.90189893  0.23642295  0.67867451     0.13020
H769        H  0.76957098  0.25087405  0.65615168     0.13030
C770        C  0.80800551  0.24807556  0.59288973     0.62560
F771        F  0.88890723  0.19922028  0.73496122    -0.22610
F772        F  0.83815405  0.21539248  0.76333734    -0.19940
F773        F  0.88262217  0.25676877  0.75400979    -0.19620
F774        F  0.82116028  0.21891357  0.57327438    -0.19670
F775        F  0.81865960  0.27983904  0.57639288    -0.19990
F776        F  0.77030020  0.24631193  0.59210992    -0.22660
C777        C  0.85142162  0.94705096  0.60872292    -0.05500
C778        C  0.82892908  0.94821587  0.57756643     0.00430
C779        C  0.84332469  0.96777772  0.54764075    -0.08150
C780        C  0.88111406  0.97603051  0.54686716    -0.05520
C781        C  0.90455436  0.96893187  0.57600881     0.00410
C782        C  0.88905937  0.95479158  0.60809696    -0.08060
C783        C  0.91185167  0.94584714  0.64124646     0.62320
H784        H  0.83947691  0.93898872  0.63409854     0.13020
H785        H  0.89269319  0.98880065  0.52324936     0.13030
C786        C  0.81962331  0.98406032  0.51859561     0.62560
F787        F  0.89186898  0.92741238  0.66704472    -0.22610
F788        F  0.92494756  0.97738318  0.65713686    -0.19940
F789        F  0.94064739  0.92390212  0.63134780    -0.19620
F790        F  0.79198975  0.00397095  0.53436815    -0.19670
F791        F  0.80583996  0.95735702  0.49585851    -0.19990
F792        F  0.83917464  0.00810745  0.49796542    -0.22660
C793        C  0.79299936  0.82638176  0.64169245    -0.05500
C794        C  0.76107372  0.84583261  0.63473250     0.00430
C795        C  0.73149126  0.84292585  0.65934726    -0.08150
C796        C  0.73389348  0.81737942  0.68710052    -0.05520
C797        C  0.76694961  0.80026694  0.69587237     0.00410
C798        C  0.79800072  0.80815874  0.67425902    -0.08060
C799        C  0.83714357  0.80359733  0.68665328     0.62320
H800        H  0.81595861  0.82881620  0.62344872     0.13020
H801        H  0.70965523  0.81171230  0.70253680     0.13030
C802        C  0.69833938  0.86757204  0.65875047     0.62560
F803        F  0.85789805  0.83333533  0.67660191    -0.22610
F804        F  0.85210449  0.77307591  0.67086221    -0.19940
F805        F  0.83930016  0.80166416  0.72379512    -0.19620
F806        F  0.67301174  0.85487211  0.63392924    -0.19670
F807        F  0.70835859  0.90271368  0.65043448    -0.19990
F808        F  0.68159185  0.86879319  0.69227808    -0.22660
C809        C  0.41476989  0.01220488  0.13170505    -0.05500
C810        C  0.43473685  0.03302640  0.10692928     0.00430
C811        C  0.45369308  0.06433588  0.11939692    -0.08150
C812        C  0.45456830  0.07193715  0.15669284    -0.05520
C813        C  0.43503825  0.05093022  0.18151940     0.00410
C814        C  0.41442560  0.02080734  0.16894362    -0.08060
C815        C  0.39122521  0.99878876  0.19470173     0.62320
H816        H  0.39893944  0.98945446  0.12160918     0.13020
H817        H  0.46841753  0.09604862  0.16666540     0.13030
C818        C  0.46977199  0.09157026  0.09324178     0.62560
F819        F  0.37346142  0.97044174  0.17718832    -0.22610
F820        F  0.36515995  0.02068430  0.21047006    -0.19940
F821        F  0.41307880  0.98445385  0.22143822    -0.19620
F822        F  0.44313797  0.10187292  0.06895766    -0.19670
F823        F  0.49856036  0.07669326  0.07455623    -0.19990
F824        F  0.48249023  0.12238412  0.11089510    -0.22660
C825        C  0.41332113  0.97627496  0.82765105    -0.05500
C826        C  0.44419546  0.95848234  0.81426658     0.00430
C827        C  0.47495570  0.95477388  0.83700453    -0.08150
C828        C  0.47278251  0.96671831  0.87336101    -0.05520
C829        C  0.44058957  0.98167587  0.88787754     0.00410
C830        C  0.41079273  0.98805573  0.86394385    -0.08060
C831        C  0.37597496  0.00654262  0.87618333     0.62320
H832        H  0.38997107  0.97854687  0.80983424     0.13020
H833        H  0.49587254  0.96282062  0.89116568     0.13030
C834        C  0.50933771  0.93695153  0.82305777     0.62560
F835        F  0.35349874  0.01476126  0.84729214    -0.22610
F836        F  0.38435120  0.03867085  0.89395526    -0.19940
F837        F  0.35662302  0.98397250  0.89893086    -0.19620
F838        F  0.52233549  0.95594242  0.79365152    -0.19670
F839        F  0.50182097  0.90163867  0.81255614    -0.19990
F840        F  0.53650939  0.93633395  0.84908240    -0.22660
C841        C  0.38615552  0.82109915  0.74589461    -0.05500
C842        C  0.37800934  0.85686666  0.75588045     0.00430
C843        C  0.34125359  0.86681287  0.76250743    -0.08150
C844        C  0.31412482  0.84000422  0.75987628    -0.05520
C845        C  0.32227484  0.80425052  0.75018132     0.00410
C846        C  0.35879303  0.79443408  0.74258013    -0.08060
C847        C  0.36900532  0.75655837  0.72994353     0.62320
H848        H  0.41428736  0.81433902  0.74029807     0.13020
H849        H  0.28601282  0.84669246  0.76566403     0.13030
C850        C  0.33010412  0.90550547  0.77145233     0.62560
F851        F  0.40347471  0.75602554  0.71478744    -0.22610
F852        F  0.34459854  0.74418468  0.70399479    -0.19940
F853        F  0.36895408  0.73311395  0.75884655    -0.19620
F854        F  0.34494972  0.92924665  0.74677878    -0.19670
F855        F  0.34184674  0.91487383  0.80580163    -0.19990
F856        F  0.29261736  0.90965709  0.77045034    -0.22660
C857        C  0.40081715  0.13279754  0.99128057    -0.05500
C858        C  0.43344167  0.11639734  0.97964379     0.00430
C859        C  0.46030829  0.13952631  0.96329298    -0.08150
C860        C  0.45130387  0.17553788  0.95553090    -0.05520
C861        C  0.41794504  0.19053593  0.96482000     0.00410
C862        C  0.39304200  0.16951195  0.98515520    -0.08060
C863        C  0.35805545  0.18421497  0.00116875     0.62320
H864        H  0.38073180  0.11670346  0.00555826     0.13020
H865        H  0.47028451  0.19189744  0.94006477     0.13030
C866        C  0.49772433  0.12965010  0.94981523     0.62560
F867        F  0.32857532  0.16758101  0.98441348    -0.22610
F868        F  0.35493153  0.22130963  0.99775483    -0.19940
F869        F  0.35702907  0.17645205  0.03768673    -0.19620
F870        F  0.49718038  0.13159504  0.91262961    -0.19670
F871        F  0.50941708  0.09626829  0.96018749    -0.19990
F872        F  0.52300863  0.15478616  0.96227645    -0.22660
C873        C  0.28239456  0.24825526  0.85074960    -0.05500
C874        C  0.29696729  0.25265785  0.81604337     0.00430
C875        C  0.33456085  0.25989883  0.81142014    -0.08150
C876        C  0.35681731  0.26083429  0.84217149    -0.05520
C877        C  0.34238457  0.25599607  0.87692179     0.00410
C878        C  0.30460699  0.25019600  0.88162912    -0.08060
C879        C  0.28777496  0.24724476  0.91889798     0.62320
H880        H  0.25332477  0.24362619  0.85338104     0.13020
H881        H  0.38587245  0.26552776  0.83941677     0.13030
C882        C  0.35086710  0.26790936  0.77452321     0.62560
F883        F  0.25006523  0.24708377  0.91732068    -0.22610
F884        F  0.29870675  0.27636972  0.94015045    -0.19940
F885        F  0.29863067  0.21551302  0.93498608    -0.19620
F886        F  0.33206430  0.29584131  0.75839231    -0.19670
F887        F  0.34882993  0.23745969  0.75264638    -0.19990
F888        F  0.38716976  0.27820371  0.77704063    -0.22660
C889        C  0.43679260  0.85108713  0.07376975    -0.05500
C890        C  0.44353725  0.82234429  0.04922496     0.00430
C891        C  0.45253390  0.83177678  0.01286356    -0.08150
C892        C  0.45225215  0.86889774  0.00284163    -0.05520
C893        C  0.44065602  0.89623744  0.02673715     0.00410
C894        C  0.43174358  0.88688849  0.06255265    -0.08060
C895        C  0.41543525  0.91427451  0.08859185     0.62320
H896        H  0.43263220  0.84485508  0.10200451     0.13020
H897        H  0.46000677  0.87683231  0.97578586     0.13030
C898        C  0.46278327  0.80382426  0.98448587     0.62560
F899        F  0.40908220  0.89982572  0.12244597    -0.22610
F900        F  0.38253476  0.92631335  0.07508977    -0.19940
F901        F  0.43878022  0.94326205  0.09271190    -0.19620
F902        F  0.43747276  0.77591182  0.98352871    -0.19670
F903        F  0.49702754  0.79052833  0.99215664    -0.19990
F904        F  0.46405686  0.81865294  0.95026772    -0.22660
C905        C  0.35010052  0.74487930  0.19675640    -0.05500
C906        C  0.31390968  0.75077027  0.18634841     0.00430
C907        C  0.30538488  0.75863592  0.14991841    -0.08150
C908        C  0.33350825  0.75738484  0.12433358    -0.05520
C909        C  0.36956285  0.75024172  0.13455163     0.00410
C910        C  0.37847586  0.74536114  0.17148283    -0.08060
C911        C  0.41769987  0.74230910  0.18444498     0.62320
H912        H  0.35591588  0.74003206  0.22504054     0.13020
H913        H  0.32766404  0.76222525  0.09605944     0.13030
C914        C  0.26733461  0.76991729  0.13840217     0.62560
F915        F  0.42013657  0.74369315  0.22180853    -0.22610
F916        F  0.43824074  0.77067209  0.17093286    -0.19940
F917        F  0.43243197  0.70988561  0.17299617    -0.19620
F918        F  0.25533628  0.79784079  0.16042904    -0.19670
F919        F  0.24341382  0.74100403  0.14082331    -0.19990
F920        F  0.26673807  0.78198805  0.10306492    -0.22660
C921        C  0.60318977  0.99548457  0.86398400    -0.05500
C922        C  0.57712856  0.01405779  0.88494746     0.00430
C923        C  0.55260419  0.03743756  0.86671628    -0.08150
C924        C  0.55534663  0.04184076  0.82912184    -0.05520
C925        C  0.58409277  0.02720438  0.80959752     0.00410
C926        C  0.60733725  0.00206211  0.82653928    -0.08060
C927        C  0.63584464  0.98210858  0.80472892     0.62320
H928        H  0.62128842  0.97683004  0.87740473     0.13020
H929        H  0.53806454  0.06096606  0.81526913     0.13030
C930        C  0.52858638  0.06324423  0.88697705     0.62560
F931        F  0.65406317  0.95687127  0.82536197    -0.22610
F932        F  0.66120618  0.00618507  0.79123566    -0.19940
F933        F  0.61908467  0.96417440  0.77614955    -0.19620
F934        F  0.55093955  0.08400288  0.90915056    -0.19670
F935        F  0.50294027  0.04482061  0.90691513    -0.19990
F936        F  0.50994038  0.08605884  0.86397400    -0.22660
C937        C  0.55724324  0.96002460  0.16690647    -0.05500
C938        C  0.59111333  0.95011132  0.18082244     0.00430
C939        C  0.62255787  0.95498940  0.15882958    -0.08150
C940        C  0.61823556  0.96603583  0.12266189    -0.05520
C941        C  0.58402207  0.97480469  0.10789180     0.00410
C942        C  0.55311470  0.97262623  0.13122280    -0.08060
C943        C  0.51569885  0.98347859  0.11898521     0.62320
H944        H  0.53355545  0.95625655  0.18392691     0.13020
H945        H  0.64229326  0.96794385  0.10582354     0.13030
C946        C  0.66129067  0.94899940  0.17204636     0.62560
F947        F  0.49014148  0.98132901  0.14637948    -0.22610
F948        F  0.50453812  0.96091356  0.09111830    -0.19940
F949        F  0.51734736  0.01884691  0.10763395    -0.19620
F950        F  0.67426653  0.91684936  0.15776301    -0.19670
F951        F  0.66375157  0.94808747  0.20932963    -0.19990
F952        F  0.68352905  0.97702247  0.16053012    -0.22660
C953        C  0.67710637  0.86179020  0.25329488    -0.05500
C954        C  0.64100629  0.84934287  0.25110875     0.00430
C955        C  0.63314797  0.81194982  0.25130844    -0.08150
C956        C  0.66236842  0.78776435  0.25367791    -0.05520
C957        C  0.69871359  0.80014341  0.25505609     0.00410
C958        C  0.70643479  0.83777885  0.25482048    -0.08060
C959        C  0.74517254  0.85274198  0.25470481     0.62320
H960        H  0.68206643  0.89074489  0.25337091     0.13020
H961        H  0.65719408  0.75884480  0.25344232     0.13030
C962        C  0.59431963  0.79795206  0.24781867     0.62560
F963        F  0.74591587  0.88967895  0.24857809    -0.22610
F964        F  0.76524284  0.83618435  0.22770101    -0.19940
F965        F  0.76158264  0.84682303  0.28775800    -0.19620
F966        F  0.57905494  0.81049334  0.21610122    -0.19670
F967        F  0.57386261  0.80999455  0.27680665    -0.19990
F968        F  0.59280021  0.76047581  0.24708345    -0.22660
C969        C  0.55518446  0.87914224  0.94437461    -0.05500
C970        C  0.57343526  0.88949007  0.97617959     0.00430
C971        C  0.59082678  0.86296441  0.99746397    -0.08150
C972        C  0.59302485  0.82731125  0.98387906    -0.05520
C973        C  0.57808546  0.81792183  0.95014125     0.00410
C974        C  0.55733675  0.84359428  0.93078262    -0.08060
C975        C  0.53875505  0.83384988  0.89521228     0.62320
H976        H  0.54118253  0.89970580  0.92900694     0.13020
H977        H  0.60813811  0.80702341  0.99852879     0.13030
C978        C  0.60658490  0.87229481  0.03438080     0.62560
F979        F  0.51523734  0.86077232  0.88415183    -0.22610
F980        F  0.51871609  0.80225951  0.89899313    -0.19940
F981        F  0.56453546  0.82891084  0.86847113    -0.19620
F982        F  0.58033727  0.88922059  0.05521055    -0.19670
F983        F  0.63631567  0.89515722  0.03080100    -0.19990
F984        F  0.61783636  0.84167092  0.05250903    -0.22660
C985        C  0.64512387  0.74969474  0.82392367    -0.05500
C986        C  0.65418510  0.75279448  0.86057588     0.00430
C987        C  0.69124149  0.75297731  0.87141667    -0.08150
C988        C  0.71834215  0.75231300  0.84461787    -0.05520
C989        C  0.70935144  0.75027583  0.80778069     0.00410
C990        C  0.67214306  0.74777228  0.79713502    -0.08060
C991        C  0.66074420  0.74184750  0.75797105     0.62320
H992        H  0.61653818  0.74855704  0.81652037     0.13020
H993        H  0.74688085  0.75323586  0.85218931     0.13030
C994        C  0.70198445  0.75256399  0.91109959     0.62560
F995        F  0.62426557  0.73231282  0.75507984    -0.22610
F996        F  0.68091728  0.71424600  0.74257589    -0.19940
F997        F  0.66600555  0.77324757  0.73866566    -0.19620
F998        F  0.68578584  0.72320781  0.92781521    -0.19670
F999        F  0.69077703  0.78409837  0.92794755    -0.19990
F1000       F  0.73933772  0.74981164  0.91562168    -0.22660
C1001       C  0.61572386  0.16771079  0.03225878    -0.05500
C1002       C  0.58290072  0.18425962  0.04255162     0.00430
C1003       C  0.55009758  0.16429575  0.03896893    -0.08150
C1004       C  0.55171384  0.12761005  0.02794854    -0.05520
C1005       C  0.58485685  0.11000475  0.01994670     0.00410
C1006       C  0.61768887  0.13090444  0.02188136    -0.08060
C1007       C  0.65509514  0.11476317  0.01491473     0.62320
H1008       H  0.64049215  0.18357393  0.03499536     0.13020
H1009       H  0.52660280  0.11235582  0.02572246     0.13030
C1010       C  0.51354777  0.18164735  0.04672557     0.62560
F1011       F  0.68275687  0.14030726  0.01816905    -0.22610
F1012       F  0.65655475  0.10059856  0.98021342    -0.19940
F1013       F  0.66200493  0.08790827  0.03983944    -0.19620
F1014       F  0.50794741  0.20955630  0.02276489    -0.19670
F1015       F  0.51276657  0.19496307  0.08178328    -0.19990
F1016       F  0.48495979  0.15741477  0.04254152    -0.22660
C1017       C  0.63109214  0.24634788  0.18297216    -0.05500
C1018       C  0.64213315  0.24363942  0.14690338     0.00430
C1019       C  0.67956887  0.24497783  0.13782671    -0.08150
C1020       C  0.70508553  0.24649941  0.16591025    -0.05520
C1021       C  0.69412889  0.24910385  0.20209059     0.00410
C1022       C  0.65659069  0.25076448  0.21086206    -0.08060
C1023       C  0.64230701  0.25845518  0.24862234     0.62320
H1024       H  0.60219366  0.24671935  0.18910239     0.13020
H1025       H  0.73395438  0.24570629  0.15984994     0.13030
C1026       C  0.69252029  0.24587705  0.09881557     0.62560
F1027       F  0.61260247  0.28130460  0.24684879    -0.22610
F1028       F  0.66806147  0.27535388  0.27041793    -0.19940
F1029       F  0.63141008  0.22631492  0.26429348    -0.19620
F1030       F  0.67589777  0.27397501  0.08073387    -0.19670
F1031       F  0.68406272  0.21350921  0.08172663    -0.19990
F1032       F  0.72986348  0.25108502  0.09652486    -0.22660
C1033       C  0.48655067  0.37086692  0.94874847    -0.05500
C1034       C  0.47676239  0.39320974  0.91996854     0.00430
C1035       C  0.45576104  0.37819675  0.89126946    -0.08150
C1036       C  0.44377173  0.34204726  0.89392933    -0.05520
C1037       C  0.44862048  0.32108533  0.92545356     0.00410
C1038       C  0.47401950  0.33475736  0.95161412    -0.08060
C1039       C  0.48967671  0.31218340  0.98164718     0.62320
H1040       H  0.50434320  0.38228725  0.96934596     0.13020
H1041       H  0.42907893  0.33025083  0.87130673     0.13030
C1042       C  0.44401754  0.40036235  0.85880156     0.62560
F1043       F  0.51427417  0.33166984  0.00240152    -0.22610
F1044       F  0.50896055  0.28353656  0.96708447    -0.19940
F1045       F  0.46196767  0.30031441  0.00393018    -0.19620
F1046       F  0.47418327  0.40985861  0.83853974    -0.19670
F1047       F  0.42622131  0.43126282  0.87039647    -0.19990
F1048       F  0.42028539  0.38134955  0.83636018    -0.22660
C1049       C  0.51940668  0.63501972  0.94434670    -0.05500
C1050       C  0.54185922  0.60745197  0.93108648     0.00430
C1051       C  0.57761384  0.61599706  0.92001871    -0.08150
C1052       C  0.59037566  0.65146696  0.92496198    -0.05520
C1053       C  0.56681034  0.68050155  0.93295992     0.00410
C1054       C  0.53034255  0.67184501  0.94384345    -0.08060
C1055       C  0.50255952  0.70003153  0.95511544     0.62320
H1056       H  0.49253962  0.62756285  0.95373712     0.13020
H1057       H  0.61882424  0.65715667  0.91966061     0.13030
C1058       C  0.60175510  0.58841112  0.90127625     0.62560
F1059       F  0.46773386  0.68547508  0.95719578    -0.22610
F1060       F  0.50138425  0.72782886  0.93035350    -0.19940
F1061       F  0.51141534  0.71330928  0.98905825    -0.19620
F1062       F  0.58566033  0.57736261  0.86915466    -0.19670
F1063       F  0.60643293  0.55884320  0.92300874    -0.19990
F1064       F  0.63591138  0.60235766  0.89329395    -0.22660
C1065       C  0.35202338  0.57391648  0.93564803    -0.05500
C1066       C  0.32483170  0.54844993  0.92603617     0.00430
C1067       C  0.33480490  0.51177145  0.92047532    -0.08150
C1068       C  0.37205506  0.50240208  0.92289379    -0.05520
C1069       C  0.39914301  0.52870117  0.92951051     0.00410
C1070       C  0.38912996  0.56495501  0.93595382    -0.08060
C1071       C  0.41792481  0.59430485  0.94065207     0.62320
H1072       H  0.34409158  0.60183252  0.93983442     0.13020
H1073       H  0.38050376  0.47469380  0.91837185     0.13030
C1074       C  0.30663829  0.48302798  0.91078726     0.62560
F1075       F  0.40279954  0.62830662  0.94474458    -0.22610
F1076       F  0.44016941  0.59503763  0.91052539    -0.19940
F1077       F  0.43882634  0.58709023  0.97079176    -0.19620
F1078       F  0.28783032  0.49290448  0.87999310    -0.19670
F1079       F  0.28241668  0.47904762  0.93905355    -0.19990
F1080       F  0.32251768  0.44971151  0.90425889    -0.22660
C1081       C  0.25049265  0.63262965  0.81656857    -0.05500
C1082       C  0.26498018  0.63974330  0.85084245     0.00430
C1083       C  0.27797186  0.67453125  0.86017226    -0.08150
C1084       C  0.27441093  0.70208211  0.83476008    -0.05520
C1085       C  0.26046047  0.69525270  0.79981640     0.00410
C1086       C  0.24897340  0.65947736  0.79013567    -0.08060
C1087       C  0.23471892  0.64844649  0.75291845     0.62320
H1088       H  0.24008023  0.60564521  0.81071989     0.13020
H1089       H  0.28261577  0.72938031  0.84212323     0.13030
C1090       C  0.29543401  0.68233517  0.89673694     0.62560
F1091       F  0.24000009  0.61185274  0.74651765    -0.22610
F1092       F  0.25262275  0.66692232  0.72580607    -0.19940
F1093       F  0.19766845  0.65485126  0.75094690    -0.19620
F1094       F  0.32635200  0.66150208  0.90054769    -0.19670
F1095       F  0.27124994  0.67416542  0.92415489    -0.19990
F1096       F  0.30566609  0.71833212  0.90047820    -0.22660
C1097       C  0.67077991  0.44322676  0.94718366    -0.05500
C1098       C  0.69265388  0.45803555  0.92005961     0.00430
C1099       C  0.67720146  0.48196979  0.89476205    -0.08150
C1100       C  0.63961593  0.48944709  0.89685537    -0.05520
C1101       C  0.61726092  0.47393697  0.92357580     0.00410
C1102       C  0.63324691  0.45031956  0.94924302    -0.08060
C1103       C  0.61079884  0.43132365  0.97782263     0.62320
H1104       H  0.68318505  0.42432079  0.96569591     0.13020
H1105       H  0.62735257  0.50737450  0.87734610     0.13030
C1106       C  0.70051306  0.49939409  0.86581989     0.62560
F1107       F  0.63103343  0.40657763  0.99721374    -0.22610
F1108       F  0.58189063  0.41293179  0.96186958    -0.19940
F1109       F  0.59779965  0.45676381  0.00180682    -0.19620
F1110       F  0.71361000  0.47323230  0.84237856    -0.19670
F1111       F  0.72963187  0.51731830  0.88191203    -0.19990
F1112       F  0.68103500  0.52423039  0.84581905    -0.22660
C1113       C  0.79184786  0.34648754  0.84891140    -0.05500
C1114       C  0.75851436  0.35494222  0.86552717     0.00430
C1115       C  0.72718112  0.33410910  0.85618614    -0.08150
C1116       C  0.72943978  0.30986423  0.82692865    -0.05520
C1117       C  0.76302587  0.30012440  0.81131426     0.00410
C1118       C  0.79527943  0.31740526  0.82454884    -0.08060
C1119       C  0.83358543  0.30459059  0.81614553     0.62320
H1120       H  0.81593570  0.36231851  0.85559952     0.13020
H1121       H  0.70452981  0.29705101  0.81750288     0.13030
C1122       C  0.69153820  0.33451742  0.87712340     0.62560
F1123       F  0.85723293  0.31311450  0.84427525    -0.22610
F1124       F  0.84649583  0.32121512  0.78534425    -0.19940
F1125       F  0.83416579  0.26744397  0.81198963    -0.19620
F1126       F  0.66580001  0.35405842  0.85828797    -0.19670
F1127       F  0.69554003  0.34886741  0.91156969    -0.19990
F1128       F  0.67867334  0.29943097  0.88105126    -0.22660
C1129       C  0.12076374  0.56877288  0.93077725    -0.05500
C1130       C  0.11791364  0.57264668  0.96842413     0.00430
C1131       C  0.15037703  0.57662020  0.98898301    -0.08150
C1132       C  0.18437997  0.57625789  0.97170982    -0.05520
C1133       C  0.18729222  0.57214559  0.93433424     0.00410
C1134       C  0.15492457  0.56807929  0.91313801    -0.08060
C1135       C  0.15618410  0.56138275  0.87237933     0.62320
H1136       H  0.09581732  0.56601667  0.91521109     0.13020
H1137       H  0.20919252  0.57988349  0.98731141     0.13030
C1138       C  0.14914585  0.58015541  0.02918563     0.62560
F1139       F  0.12258646  0.55087341  0.85873441    -0.22610
F1140       F  0.18080556  0.53421452  0.86462305    -0.19940
F1141       F  0.16615515  0.59238418  0.85425715    -0.19620
F1142       F  0.13514559  0.54820036  0.04229970    -0.19670
F1143       F  0.12745804  0.60931783  0.03818495    -0.19990
F1144       F  0.18322465  0.58570616  0.04455274    -0.22660
C1145       C  0.06590994  0.55415665  0.16950266    -0.05500
C1146       C  0.04185460  0.57384432  0.19110900     0.00430
C1147       C  0.00884577  0.58625403  0.17582127    -0.08150
C1148       C  0.00252189  0.58073518  0.13827642    -0.05520
C1149       C  0.02936368  0.56536574  0.11578595     0.00410
C1150       C  0.06192383  0.55320350  0.13193209    -0.08060
C1151       C  0.09516256  0.54797194  0.10932447     0.62320
H1152       H  0.09122062  0.54528289  0.18164685     0.13020
H1153       H  0.97769878  0.59042890  0.12591626     0.13030
C1154       C  0.98129787  0.60591883  0.19900673     0.62560
F1155       F  0.12618570  0.54155428  0.12953613    -0.22610
F1156       F  0.10069791  0.57988665  0.09125707    -0.19940
F1157       F  0.08958938  0.51970906  0.08534950    -0.19620
F1158       F  0.99667611  0.63734629  0.21301734    -0.19670
F1159       F  0.97066925  0.58384110  0.22715780    -0.19990
F1160       F  0.95052938  0.61505283  0.17944806    -0.22660
C1161       C  0.17870380  0.63433667  0.24444897    -0.05500
C1162       C  0.14317807  0.64754216  0.24039933     0.00430
C1163       C  0.13728128  0.68514854  0.23637838    -0.08150
C1164       C  0.16765815  0.70835864  0.23587871    -0.05520
C1165       C  0.20310289  0.69525184  0.24047366     0.00410
C1166       C  0.20901927  0.65772640  0.24520326    -0.08060
C1167       C  0.24667515  0.64264086  0.25300596     0.62320
H1168       H  0.18229255  0.60551740  0.24821020     0.13020
H1169       H  0.16400170  0.73723026  0.23257067     0.13030
C1170       C  0.09917138  0.70096194  0.23430362     0.62560
F1171       F  0.24513992  0.60636888  0.26210277    -0.22610
F1172       F  0.26245995  0.66137049  0.28164157    -0.19940
F1173       F  0.26863828  0.64578621  0.22290796    -0.19620
F1174       F  0.07861710  0.68943923  0.26337725    -0.19670
F1175       F  0.08235447  0.69006927  0.20252888    -0.19990
F1176       F  0.09988078  0.73844894  0.23505200    -0.22660
C1177       C  0.93553440  0.57811491  0.84881874    -0.05500
C1178       C  0.95980329  0.56795687  0.82119437     0.00430
C1179       C  0.99499623  0.55579205  0.83188698    -0.08150
C1180       C  0.00355261  0.55381717  0.86935491    -0.05520
C1181       C  0.97991883  0.56723696  0.89618134     0.00410
C1182       C  0.94583846  0.58132141  0.88517244    -0.08060
C1183       C  0.91972318  0.60252127  0.90888166     0.62320
H1184       H  0.90815810  0.58625515  0.84158953     0.13020
H1185       H  0.02962814  0.54323139  0.87793766     0.13030
C1186       C  0.02372427  0.54529759  0.80461537     0.62560
F1187       F  0.92102098  0.63849970  0.89884996    -0.22610
F1188       F  0.92717739  0.60071117  0.94531769    -0.19940
F1189       F  0.88465575  0.58982342  0.90307186    -0.19620
F1190       F  0.02654661  0.57128087  0.77803457    -0.19670
F1191       F  0.01436936  0.51236170  0.78948756    -0.19990
F1192       F  0.05769942  0.54178742  0.82047346    -0.22660
C1193       C  0.88531453  0.67647849  0.75440867    -0.05500
C1194       C  0.87630628  0.64014217  0.74801719     0.00430
C1195       C  0.83908862  0.62917509  0.74784185    -0.08150
C1196       C  0.81206079  0.65588332  0.75069411    -0.05520
C1197       C  0.82121897  0.69240327  0.75610638     0.00410
C1198       C  0.85840962  0.70259432  0.76020736    -0.08060
C1199       C  0.87147524  0.73981059  0.77235682     0.62320
H1200       H  0.91382901  0.68423510  0.75654654     0.13020
H1201       H  0.78349727  0.64850976  0.74850137     0.13030
C1202       C  0.82787277  0.58950429  0.74605338     0.62560
F1203       F  0.89447269  0.73621248  0.80180709    -0.22610
F1204       F  0.84344395  0.76233646  0.78283508    -0.19940
F1205       F  0.89080369  0.75577692  0.74460606    -0.19620
F1206       F  0.84582705  0.57040982  0.77266741    -0.19670
F1207       F  0.83635140  0.57506882  0.71258149    -0.19990
F1208       F  0.79077581  0.58494673  0.75137862    -0.22660
C1209       C  0.83789771  0.54771817  0.03298075    -0.05500
C1210       C  0.83350063  0.55533215  0.06988612     0.00430
C1211       C  0.86521856  0.55948097  0.09186643    -0.08150
C1212       C  0.89954730  0.56088909  0.07512285    -0.05520
C1213       C  0.90360634  0.55566886  0.03779669     0.00410
C1214       C  0.87240810  0.54700408  0.01662982    -0.08060
C1215       C  0.87279324  0.54005299  0.97640244     0.62320
H1216       H  0.81390086  0.54445314  0.01603549     0.13020
H1217       H  0.92362966  0.56598541  0.09150653     0.13030
C1218       C  0.86440239  0.56277866  0.13280375     0.62560
F1219       F  0.85295807  0.50914561  0.96855856    -0.22610
F1220       F  0.90737771  0.53558655  0.96251579    -0.19940
F1221       F  0.85592097  0.56876222  0.95980221    -0.19620
F1222       F  0.83139260  0.55156015  0.14701718    -0.19670
F1223       F  0.87122324  0.59828425  0.14303955    -0.19990
F1224       F  0.89133341  0.54146169  0.14761181    -0.22660
C1225       C  0.73023447  0.64048814  0.16226134    -0.05500
C1226       C  0.75423606  0.64487031  0.13296299     0.00430
C1227       C  0.77566901  0.67695307  0.13053421    -0.08150
C1228       C  0.77499479  0.70157137  0.15956020    -0.05520
C1229       C  0.75150302  0.69650060  0.18883576     0.00410
C1230       C  0.72775520  0.66637509  0.18986621    -0.08060
C1231       C  0.70054818  0.66129401  0.22038116     0.62320
H1232       H  0.71416647  0.61587516  0.16411266     0.13020
H1233       H  0.79254412  0.72533440  0.15918850     0.13030
C1234       C  0.79917638  0.68677042  0.09827412     0.62560
F1235       F  0.68065230  0.62949524  0.21645636    -0.22610
F1236       F  0.67623805  0.68973146  0.22074601    -0.19940
F1237       F  0.71863907  0.66023567  0.25319763    -0.19620
F1238       F  0.79056762  0.66663291  0.06771392    -0.19670
F1239       F  0.83548075  0.68171251  0.10694215    -0.19990
F1240       F  0.79416273  0.72282713  0.08977488    -0.22660
C1241       C  0.87159431  0.43518194  0.99830941    -0.05500
C1242       C  0.89957600  0.43628075  0.97243700     0.00430
C1243       C  0.89057930  0.43745603  0.93534911    -0.08150
C1244       C  0.85383814  0.43777414  0.92505855    -0.05520
C1245       C  0.82566274  0.43459040  0.95047169     0.00410
C1246       C  0.83442264  0.43380809  0.98784896    -0.08060
C1247       C  0.80487566  0.43094732  0.01624654     0.62320
H1248       H  0.87913281  0.43448755  0.02662926     0.13020
H1249       H  0.84670786  0.43780336  0.89660146     0.13030
C1250       C  0.91983048  0.43472741  0.90677910     0.62560
F1251       F  0.81932853  0.42878857  0.05077621    -0.22610
F1252       F  0.78383178  0.40031035  0.00993911    -0.19940
F1253       F  0.78297112  0.46118828  0.01494652    -0.19620
F1254       F  0.93708575  0.40185924  0.91081669    -0.19670
F1255       F  0.94475063  0.46275278  0.91091933    -0.19990
F1256       F  0.90574121  0.43616514  0.87205292    -0.22660
C1257       C  0.98518561  0.41930383  0.17318638    -0.05500
C1258       C  0.94914377  0.43003780  0.17968873     0.00430
C1259       C  0.92782965  0.44327781  0.15054411    -0.08150
C1260       C  0.94322714  0.44454098  0.11573674    -0.05520
C1261       C  0.97844031  0.43180764  0.10888391     0.00410
C1262       C  0.00019068  0.41975287  0.13805402    -0.08060
C1263       C  0.03925381  0.40826655  0.13207791     0.62320
H1264       H  0.00095932  0.40906879  0.19564051     0.13020
H1265       H  0.92715546  0.45394419  0.09309174     0.13030
C1266       C  0.88849368  0.45486291  0.15570225     0.62560
F1267       F  0.05609900  0.39829992  0.16398785    -0.22610
F1268       F  0.05856643  0.43690193  0.11771773    -0.19940
F1269       F  0.04041252  0.37913197  0.10839951    -0.19620
F1270       F  0.88580545  0.47759378  0.18547834    -0.19670
F1271       F  0.86645801  0.42487936  0.16073484    -0.19990
F1272       F  0.87538061  0.47302232  0.12582058    -0.22660
C1273       C  0.87112955  0.32032679  0.24380164    -0.05500
C1274       C  0.86074878  0.35647540  0.24827916     0.00430
C1275       C  0.82369434  0.36562138  0.25301692    -0.08150
C1276       C  0.79810492  0.33752306  0.25521832    -0.05520
C1277       C  0.80851022  0.30123825  0.25187295     0.00410
C1278       C  0.84534437  0.29219193  0.24505482    -0.08060
C1279       C  0.85725664  0.25342220  0.23800620     0.62320
H1280       H  0.89970600  0.31439208  0.23962858     0.13020
H1281       H  0.76959208  0.34360153  0.25961420     0.13030
C1282       C  0.81111798  0.40475315  0.25477970     0.62560
F1283       F  0.89304155  0.25184810  0.22629582    -0.22610
F1284       F  0.83545807  0.23774052  0.21152724    -0.19940
F1285       F  0.85464372  0.23343784  0.26930112    -0.19620
F1286       F  0.82424124  0.42343451  0.22524267    -0.19670
F1287       F  0.82370640  0.42124608  0.28611088    -0.19990
F1288       F  0.77347295  0.40721150  0.25447006    -0.22660
C1289       C  0.01313340  0.42309670  0.86617931    -0.05500
C1290       C  0.03757245  0.43581221  0.89276950     0.00430
C1291       C  0.07167134  0.45031544  0.88167126    -0.08150
C1292       C  0.07964860  0.45188455  0.84454013    -0.05520
C1293       C  0.05566110  0.43807859  0.81820713     0.00410
C1294       C  0.02148677  0.42405704  0.82901388    -0.07580
C1295       C  0.99449492  0.40922791  0.80138449     0.62320
H1296       H  0.98765438  0.41158063  0.87465229     0.13020
H1297       H  0.10626734  0.46156986  0.83606841     0.13030
C1298       C  0.10203438  0.46209107  0.90710353     0.62560
F1299       F  0.96273687  0.39691747  0.81744067    -0.22610
F1300       F  0.00978689  0.38067283  0.78248820    -0.19940
F1301       F  0.98533650  0.43623722  0.77745149    -0.19620
F1302       F  0.13287611  0.44211440  0.89960824    -0.19670
F1303       F  0.09398452  0.45819733  0.94318623    -0.19990
F1304       F  0.10981487  0.49793080  0.90126126    -0.22660
C1305       C  0.13165991  0.32850643  0.75399988    -0.05500
C1306       C  0.14209906  0.36445201  0.74836305     0.00430
C1307       C  0.17943637  0.37398982  0.74581747    -0.08150
C1308       C  0.20532695  0.34626218  0.74675831    -0.05520
C1309       C  0.19481684  0.31019650  0.75220684     0.00410
C1310       C  0.15760420  0.30126834  0.75779286    -0.08060
C1311       C  0.14381178  0.26426372  0.76925366     0.62320
H1312       H  0.10295374  0.32201050  0.75715031     0.13020
H1313       H  0.23405646  0.35250166  0.74370192     0.13030
C1314       C  0.19181445  0.41321979  0.74337614     0.62560
F1315       F  0.11925075  0.26820235  0.79734320    -0.22610
F1316       F  0.17124107  0.24201685  0.78146293    -0.19940
F1317       F  0.12614150  0.24775618  0.74039400    -0.19620
F1318       F  0.17762848  0.43289089  0.77200593    -0.19670
F1319       F  0.17998045  0.42792292  0.71124624    -0.19990
F1320       F  0.22941789  0.41649848  0.74470571    -0.22660
C1321       C  0.12631786  0.44506415  0.06138845    -0.05500
C1322       C  0.11764148  0.42768182  0.02864534     0.00430
C1323       C  0.14568382  0.40931201  0.00943251    -0.08150
C1324       C  0.18143008  0.41038254  0.02350593    -0.05520
C1325       C  0.18969738  0.42766219  0.05641964     0.00410
C1326       C  0.16149487  0.44434355  0.07640041    -0.08060
C1327       C  0.16821600  0.46092058  0.11365601     0.62320
H1328       H  0.10461154  0.45793696  0.07603654     0.13020
H1329       H  0.20297395  0.39617565  0.00935221     0.13030
C1330       C  0.14034953  0.38766649  0.97473255     0.62560
F1331       F  0.13654170  0.47432265  0.12855801    -0.22610
F1332       F  0.19339845  0.48881772  0.11107497    -0.19940
F1333       F  0.18106469  0.43534877  0.13740439    -0.19620
F1334       F  0.16471812  0.39992336  0.94903749    -0.19670
F1335       F  0.10573131  0.38992501  0.96039598    -0.19990
F1336       F  0.14757361  0.35163445  0.98144506    -0.22660
C1337       C  0.25481762  0.32531237  0.13278033    -0.05500
C1338       C  0.26426347  0.36059399  0.14374744     0.00430
C1339       C  0.27147262  0.36827821  0.18071106    -0.08150
C1340       C  0.26992382  0.33963813  0.20544427    -0.05520
C1341       C  0.26056879  0.30441663  0.19430920     0.00410
C1342       C  0.25216725  0.29701553  0.15762528    -0.08060
C1343       C  0.23892369  0.25987863  0.14505283     0.62320
H1344       H  0.24875235  0.32033785  0.10447517     0.13020
H1345       H  0.27571600  0.34448803  0.23382032     0.13030
C1346       C  0.27928006  0.40652974  0.19426510     0.62560
F1347       F  0.22817064  0.25995334  0.10913866    -0.22610
F1348       F  0.20929950  0.24923063  0.16555349    -0.19940
F1349       F  0.26642716  0.23479861  0.14864527    -0.19620
F1350       F  0.25219123  0.42962015  0.18270655    -0.19670
F1351       F  0.31253054  0.41843894  0.18136801    -0.19990
F1352       F  0.28055561  0.40830627  0.23166079    -0.22660
C1353       C  0.35370993  0.42691343  0.05575893    -0.05500
C1354       C  0.32635977  0.45112837  0.06630587     0.00430
C1355       C  0.33575704  0.48785871  0.07352356    -0.08150
C1356       C  0.37284276  0.49849750  0.07159243    -0.05520
C1357       C  0.40028185  0.47328292  0.06392719     0.00410
C1358       C  0.39059506  0.43696104  0.05610654    -0.08060
C1359       C  0.41944127  0.40806076  0.05344990     0.62320
H1360       H  0.34613123  0.39887830  0.05086950     0.13020
H1361       H  0.38086002  0.52626021  0.07723650     0.13030
C1362       C  0.30710562  0.51525017  0.08441445     0.62560
F1363       F  0.40469700  0.37381230  0.04803109    -0.22610
F1364       F  0.43841708  0.40815653  0.08578179    -0.19940
F1365       F  0.44295443  0.41518882  0.02518477    -0.19620
F1366       F  0.28873149  0.50349095  0.11479685    -0.19670
F1367       F  0.28256853  0.51956593  0.05639397    -0.19990
F1368       F  0.32238101  0.54880466  0.09226554    -0.22660
C1369       C  0.45035086  0.61866055  0.04693357    -0.05500
C1370       C  0.48469729  0.61033482  0.06118341     0.00430
C1371       C  0.50731159  0.63902596  0.07443812    -0.08150
C1372       C  0.49396549  0.67480988  0.07397079    -0.05520
C1373       C  0.45886125  0.68279415  0.06138195     0.00410
C1374       C  0.43685572  0.65429286  0.04683278    -0.08060
C1375       C  0.39890295  0.66120503  0.03169362     0.62320
H1376       H  0.43316498  0.59649292  0.03765983     0.13020
H1377       H  0.51045958  0.69654781  0.08543331     0.13030
C1378       C  0.54535649  0.63402058  0.08974591     0.62560
F1379       F  0.38463460  0.63084372  0.01449895    -0.22610
F1380       F  0.40046431  0.68899659  0.00690470    -0.19940
F1381       F  0.37500810  0.67042646  0.05898437    -0.19620
F1382       F  0.56986124  0.65398635  0.06952780    -0.19670
F1383       F  0.55670951  0.59849968  0.08959693    -0.19990
F1384       F  0.54627236  0.64661642  0.12507314    -0.22660
C1385       C  0.67383094  0.55624156  0.04331950    -0.05500
C1386       C  0.69522736  0.54214617  0.07117071     0.00430
C1387       C  0.67936755  0.51816898  0.09633453    -0.08150
C1388       C  0.64179168  0.51047827  0.09382963    -0.05520
C1389       C  0.61986695  0.52561791  0.06671889     0.00410
C1390       C  0.63634288  0.54842773  0.04049884    -0.08060
C1391       C  0.61460228  0.56539018  0.01020566     0.62320
H1392       H  0.68655325  0.57510129  0.02486450     0.13020
H1393       H  0.62910875  0.49288532  0.11347228     0.13030
C1394       C  0.70202481  0.50183947  0.12636449     0.62560
F1395       F  0.63530725  0.58940021  0.99014474    -0.22610
F1396       F  0.58517449  0.58409201  0.02396659    -0.19940
F1397       F  0.60237628  0.53834410  0.98730073    -0.19620
F1398       F  0.71576063  0.52896744  0.14864459    -0.19670
F1399       F  0.73066270  0.48271241  0.11147702    -0.19990
F1400       F  0.68175952  0.47830003  0.14736369    -0.22660
C1401       C  0.58703945  0.34737098  0.07528900    -0.05500
C1402       C  0.56127961  0.31888996  0.07489386     0.00430
C1403       C  0.52382845  0.32765391  0.07662227    -0.08150
C1404       C  0.51351659  0.36421030  0.07258213    -0.05520
C1405       C  0.53925238  0.39256708  0.07337270     0.00410
C1406       C  0.57643447  0.38384374  0.07812026    -0.08060
C1407       C  0.60407174  0.41224134  0.09010904     0.62320
H1408       H  0.61567925  0.34057192  0.07682339     0.13020
H1409       H  0.48520392  0.37064151  0.07008069     0.13030
C1410       C  0.49522181  0.29914065  0.08523591     0.62560
F1411       F  0.63872359  0.39806822  0.09370461    -0.22610
F1412       F  0.59373765  0.42628919  0.12328285    -0.19940
F1413       F  0.60572622  0.43986864  0.06559296    -0.19620
F1414       F  0.50295761  0.28403125  0.11844884    -0.19670
F1415       F  0.49508584  0.27215715  0.05929686    -0.19990
F1416       F  0.46056511  0.31367122  0.08682842    -0.22660
C1417       C  0.95126916  0.33475073  0.56296168    -0.05500
C1418       C  0.92789099  0.31085908  0.54438291     0.00430
C1419       C  0.90481108  0.32463114  0.51696766    -0.08150
C1420       C  0.90623579  0.36190044  0.50911260    -0.05520
C1421       C  0.92864953  0.38608796  0.52868285     0.00410
C1422       C  0.95057393  0.37231969  0.55718575    -0.08060
C1423       C  0.97128671  0.39561276  0.58444186     0.62320
H1424       H  0.96760117  0.32430328  0.58499798     0.13020
H1425       H  0.88916881  0.37231881  0.48764568     0.13030
C1426       C  0.87738252  0.30174651  0.49598669     0.62560
F1427       F  0.96230876  0.38455326  0.61897638    -0.22610
F1428       F  0.96303227  0.43188023  0.58215084    -0.19940
F1429       F  0.00838649  0.39127028  0.57970910    -0.19620
F1430       F  0.84261099  0.31385657  0.50357473    -0.19670
F1431       F  0.87900518  0.26532849  0.50403581    -0.19990
F1432       F  0.88375864  0.30544942  0.45935242    -0.22660
C1433       C  0.95967136  0.61774252  0.45284378    -0.05500
C1434       C  0.93281179  0.60460016  0.47658509     0.00430
C1435       C  0.90783325  0.62968017  0.49200671    -0.08150
C1436       C  0.90864374  0.66607810  0.48056809    -0.05520
C1437       C  0.93357203  0.67836144  0.45466620     0.00410
C1438       C  0.96022223  0.65414492  0.44132760    -0.08060
C1439       C  0.98846647  0.66667379  0.41420745     0.62320
H1440       H  0.97931419  0.59880676  0.44199869     0.13020
H1441       H  0.88811579  0.68482039  0.49005250     0.13030
C1442       C  0.88016296  0.61839850  0.52030104     0.62560
F1443       F  0.01277827  0.63945333  0.40570727    -0.22610
F1444       F  0.00791237  0.69565243  0.42855967    -0.19940
F1445       F  0.97162450  0.67729992  0.38257744    -0.19620
F1446       F  0.89727817  0.59938882  0.54751847    -0.19670
F1447       F  0.85337618  0.59696649  0.50450752    -0.19990
F1448       F  0.86336627  0.64805056  0.53601950    -0.22660
C1449       C  0.95147914  0.44040606  0.37856870    -0.05500
C1450       C  0.92770668  0.46766533  0.39058105     0.00430
C1451       C  0.90532877  0.48517186  0.36471261    -0.08150
C1452       C  0.90774680  0.47463403  0.32794316    -0.05520
C1453       C  0.93127462  0.44705354  0.31636582     0.00410
C1454       C  0.95362374  0.42969763  0.34201499    -0.08060
C1455       C  0.97917265  0.39940030  0.33072434     0.62320
H1456       H  0.96816699  0.42702302  0.39822121     0.13020
H1457       H  0.88966731  0.48639779  0.30811406     0.13030
C1458       C  0.87854310  0.51436108  0.37572636     0.62560
F1459       F  0.00173312  0.38908146  0.35883577    -0.22610
F1460       F  0.00095128  0.41074648  0.30244936    -0.19940
F1461       F  0.95921678  0.36942622  0.31958624    -0.19620
F1462       F  0.89640545  0.54134324  0.39513630    -0.19670
F1463       F  0.85128404  0.49942350  0.39675657    -0.19990
F1464       F  0.86221991  0.53012257  0.34601735    -0.22660
C1465       C  0.96733833  0.52823554  0.62690791    -0.05500
C1466       C  0.93393286  0.51715188  0.61120887     0.00430
C1467       C  0.90303419  0.51368661  0.63434191    -0.08150
C1468       C  0.90629333  0.52450568  0.67088776    -0.05520
C1469       C  0.93854236  0.53962194  0.68506305     0.00410
C1470       C  0.96999624  0.54062520  0.66307459    -0.08060
C1471       C  0.00557680  0.55668106  0.67715294     0.62320
H1472       H  0.99132660  0.52842824  0.61019982     0.13020
H1473       H  0.88263333  0.52384186  0.68831949     0.13030
C1474       C  0.86633877  0.49940177  0.62110016     0.62560
F1475       F  0.03304702  0.55496186  0.65163881    -0.22610
F1476       F  0.01703156  0.53792888  0.70720713    -0.19940
F1477       F  0.00059681  0.59264058  0.68653654    -0.19620
F1478       F  0.87073086  0.46614007  0.60422530    -0.19670
F1479       F  0.85105510  0.52371926  0.59729686    -0.19990
F1480       F  0.84193548  0.49462590  0.64919721    -0.22660
C1481       C  0.39822359  0.94904663  0.43008819    -0.05500
C1482       C  0.40374880  0.94141150  0.46667565     0.00430
C1483       C  0.37348814  0.93301243  0.48877735    -0.08150
C1484       C  0.33843696  0.93091629  0.47309465    -0.05520
C1485       C  0.33314867  0.93609998  0.43589194     0.00410
C1486       C  0.36344979  0.94639134  0.41401364    -0.08060
C1487       C  0.35950200  0.95476327  0.37384494     0.62320
H1488       H  0.42180972  0.95556274  0.41372556     0.13020
H1489       H  0.31521984  0.92313750  0.48939195     0.13030
C1490       C  0.37865872  0.92564742  0.52858252     0.62560
F1491       F  0.39045132  0.97131777  0.36016505    -0.22610
F1492       F  0.33039665  0.97776372  0.36857074    -0.19940
F1493       F  0.35410370  0.92343410  0.35390611    -0.19620
F1494       F  0.39713475  0.95445298  0.54439441    -0.19670
F1495       F  0.39870142  0.89439150  0.53277393    -0.19990
F1496       F  0.34573054  0.92126663  0.54629208    -0.22660
C1497       C  0.63910060  0.89002381  0.51411600    -0.05500
C1498       C  0.62302380  0.92419038  0.51927639     0.00430
C1499       C  0.64619233  0.95347207  0.53012460    -0.08150
C1500       C  0.68246407  0.94658653  0.54017884    -0.05520
C1501       C  0.69765212  0.91211479  0.53708756     0.00410
C1502       C  0.67636060  0.88399185  0.52095403    -0.08060
C1503       C  0.69165754  0.84749471  0.50984940     0.62320
H1504       H  0.62266712  0.86774371  0.50371835     0.13020
H1505       H  0.69884142  0.96804379  0.55216325     0.13030
C1506       C  0.63329605  0.99199055  0.53112067     0.62560
F1507       F  0.68132652  0.83966874  0.47461016    -0.22610
F1508       F  0.67779362  0.82093076  0.53219415    -0.19940
F1509       F  0.72932580  0.84675774  0.51114761    -0.19620
F1510       F  0.60572172  0.99531158  0.55629685    -0.19670
F1511       F  0.62096518  0.00084676  0.49720176    -0.19990
F1512       F  0.66099599  0.01614561  0.53993557    -0.22660
C1513       C  0.51464169  0.93591797  0.36147968    -0.05500
C1514       C  0.54086141  0.93676833  0.38923384     0.00430
C1515       C  0.57828805  0.93816646  0.38031440    -0.08150
C1516       C  0.58836831  0.93828167  0.34366601    -0.05520
C1517       C  0.56247054  0.93465777  0.31571182     0.00410
C1518       C  0.52485827  0.93421039  0.32462014    -0.08060
C1519       C  0.49584580  0.93035030  0.29551243     0.62320
H1520       H  0.48612397  0.93527384  0.36899913     0.13020
H1521       H  0.61698028  0.93809090  0.33647431     0.13030
C1522       C  0.60748749  0.93679859  0.40947184     0.62560
F1523       F  0.46109534  0.92918057  0.31001623    -0.22610
F1524       F  0.50117732  0.89873110  0.27597203    -0.19940
F1525       F  0.49773175  0.95955002  0.27244724    -0.19620
F1526       F  0.60408394  0.90482877  0.42840901    -0.19670
F1527       F  0.60368475  0.96556141  0.43316271    -0.19990
F1528       F  0.64228442  0.93837635  0.39513966    -0.22660
C1529       C  0.44729991  0.92416941  0.61269479    -0.05500
C1530       C  0.48355360  0.93343798  0.60581324     0.00430
C1531       C  0.50644183  0.94372123  0.63518689    -0.08150
C1532       C  0.49260712  0.94178136  0.67092409    -0.05520
C1533       C  0.45610940  0.93191955  0.67780199     0.00410
C1534       C  0.43246301  0.92578317  0.64759015    -0.08060
C1535       C  0.39125930  0.92187488  0.65032708     0.62320
H1536       H  0.42981093  0.91695886  0.59019172     0.13020
H1537       H  0.51051300  0.94692276  0.69373746     0.13030
C1538       C  0.54552948  0.95544231  0.62872434     0.62560
F1539       F  0.37474685  0.94119506  0.62307994    -0.22610
F1540       F  0.37800452  0.93531570  0.68261817    -0.19940
F1541       F  0.38125462  0.88587820  0.64633034    -0.19620
F1542       F  0.54601784  0.98648929  0.60815043    -0.19670
F1543       F  0.56396353  0.92831785  0.61053856    -0.19990
F1544       F  0.56378534  0.96280494  0.66079358    -0.22660
C1545       C  0.10312843  0.63074170  0.51852519    -0.05500
C1546       C  0.07270347  0.60970137  0.52846302     0.00430
C1547       C  0.04507012  0.62617526  0.54989074    -0.08150
C1548       C  0.04951638  0.66246058  0.56117578    -0.05520
C1549       C  0.08067416  0.68259958  0.55251375     0.00410
C1550       C  0.10746032  0.66698470  0.52977666    -0.08060
C1551       C  0.14123125  0.68694557  0.51687107     0.62320
H1552       H  0.12412839  0.61866453  0.50183178     0.13020
H1553       H  0.02948127  0.67496052  0.57866652     0.13030
C1554       C  0.01230637  0.60515875  0.56318104     0.62560
F1555       F  0.14419101  0.68305018  0.47974787    -0.22610
F1556       F  0.17168060  0.67203454  0.53288844    -0.19940
F1557       F  0.14053390  0.72360786  0.52461538    -0.19620
F1558       F  0.02407921  0.57441842  0.58039096    -0.19670
F1559       F  0.99033616  0.59579382  0.53431246    -0.19990
F1560       F  0.99146752  0.62487538  0.58741278    -0.22660
C1561       C  0.11223826  0.37389011  0.47028252    -0.05500
C1562       C  0.07758302  0.38997207  0.47137216     0.00430
C1563       C  0.04675226  0.36703597  0.46432450    -0.08150
C1564       C  0.05198564  0.33088342  0.45267330    -0.05520
C1565       C  0.08669664  0.31573521  0.45014398     0.00410
C1566       C  0.11721272  0.33706372  0.46131215    -0.08060
C1567       C  0.15506052  0.32122822  0.46499127     0.62320
H1568       H  0.13595584  0.39028328  0.47687799     0.13020
H1569       H  0.02884539  0.31410120  0.44501435     0.13030
C1570       C  0.00846105  0.37946247  0.47130686     0.62560
F1571       F  0.17634043  0.34149591  0.48873446    -0.22610
F1572       F  0.17225758  0.32087050  0.43181335    -0.19940
F1573       F  0.15286776  0.28646938  0.47848964    -0.19620
F1574       F  0.00017433  0.40824463  0.44942056    -0.19670
F1575       F  0.00652797  0.38967614  0.50706707    -0.19990
F1576       F  0.98273054  0.35246060  0.46517053    -0.22660
C1577       C  0.08812826  0.57127587  0.39000008    -0.05500
C1578       C  0.07229525  0.53702157  0.39402969     0.00430
C1579       C  0.05508416  0.52038728  0.36401080    -0.08150
C1580       C  0.05773283  0.53669588  0.32989105    -0.05520
C1581       C  0.07300611  0.57139442  0.32553970     0.00410
C1582       C  0.08614659  0.59011003  0.35717831    -0.08060
C1583       C  0.09670096  0.63006918  0.35877641     0.62320
H1584       H  0.09999653  0.58452121  0.41358579     0.13020
H1585       H  0.04762423  0.52216354  0.30642442     0.13030
C1586       C  0.03225243  0.48675232  0.36837137     0.62560
F1587       F  0.08442325  0.64554013  0.39065937    -0.22610
F1588       F  0.08142232  0.64950046  0.33087404    -0.19940
F1589       F  0.13426425  0.63366777  0.35812293    -0.19620
F1590       F  0.00293475  0.49556124  0.38979715    -0.19670
F1591       F  0.05218710  0.45961791  0.38447345    -0.19990
F1592       F  0.01918639  0.47408183  0.33553241    -0.22660
C1593       C  0.04288661  0.46709614  0.62576054    -0.05500
C1594       C  0.07579541  0.47705811  0.60862650     0.00430
C1595       C  0.10806468  0.48008833  0.63011785    -0.08150
C1596       C  0.10615283  0.47121184  0.66692649    -0.05520
C1597       C  0.07418106  0.45789482  0.68284059     0.00410
C1598       C  0.04151104  0.45719539  0.66251739    -0.08060
C1599       C  0.00578756  0.44469880  0.67907765     0.62320
H1600       H  0.01822815  0.46574756  0.60977339     0.13020
H1601       H  0.13058906  0.47205261  0.68339197     0.13030
C1602       C  0.14494869  0.49134034  0.61488616     0.62560
F1603       F  0.97724807  0.44629669  0.65471437    -0.22610
F1604       F  0.99690195  0.46670486  0.70800715    -0.19940
F1605       F  0.00888580  0.40937204  0.69074918    -0.19620
F1606       F  0.14229378  0.52476285  0.59851471    -0.19670
F1607       F  0.15669083  0.46566740  0.59014069    -0.19990
F1608       F  0.17147150  0.49428739  0.64149101    -0.22660
loop_ 
_geom_bond_atom_site_label_1 
_geom_bond_atom_site_label_2 
_geom_bond_distance 
_geom_bond_site_symmetry_2 
_ccdc_geom_bond_type 
O1           Cu9   2.027       .  S
O1           C11   1.279       .  A
O2           Cu9   2.041       .  S
O2           C12   1.280       .  A
O3           Cu9   2.018       .  S
O3           C13   1.279       .  A
O4           Cu9   2.017       .  S
O4           C14   1.278       .  A
O5          Cu10   2.009       .  S
O5           C14   1.277       .  A
O6          Cu10   2.005       .  S
O6           C13   1.276       .  A
O7          Cu10   2.032       .  S
O7           C12   1.281       .  A
O8          Cu10   2.016       .  S
O8           C11   1.279       .  A
Cu9         Cu10   2.359       .  S
C11        C1546   1.499       .  S
C12        C1562   1.520       .  S
C13        C1594   1.500       .  S
C14        C1578   1.481       .  S
O15         Cu23   2.013       .  S
O15          C25   1.277       .  A
O16         Cu23   2.020       .  S
O16          C26   1.279       .  A
O17         Cu23   2.037       .  S
O17          C27   1.281       .  A
O18         Cu23   2.033       .  S
O18          C28   1.280       .  A
O19         Cu24   2.012       .  S
O19          C28   1.276       .  A
O20         Cu24   2.023       .  S
O20          C27   1.277       .  A
O21         Cu24   2.021       .  S
O21          C26   1.279       .  A
O22         Cu24   2.030       .  S
O22          C25   1.279       .  A
Cu23        Cu24   2.367       .  S
C25        C1482   1.481       .  S
C26        C1498   1.509       .  S
C27        C1530   1.489       .  S
C28        C1514   1.481       .  S
O29         Cu37   2.025       .  S
O29          C39   1.278       .  A
O30         Cu37   2.025       .  S
O30          C40   1.278       .  A
O31         Cu37   2.022       .  S
O31          C41   1.278       .  A
O32         Cu37   2.028       .  S
O32          C42   1.278       .  A
O33         Cu38   2.028       .  S
O33          C42   1.280       .  A
O34         Cu38   2.030       .  S
O34          C41   1.280       .  A
O35         Cu38   2.012       .  S
O35          C40   1.278       .  A
O36         Cu38   2.028       .  S
O36          C39   1.280       .  A
Cu37        Cu38   2.360       .  S
C39        C1434   1.501       .  S
C40        C1421   1.489       .  S
C41        C1466   1.509       .  S
C42        C1450   1.499       .  S
O43         Cu51   2.033       .  S
O43          C53   1.279       .  A
O44         Cu51   2.027       .  S
O44          C54   1.279       .  A
O45         Cu51   2.035       .  S
O45          C55   1.281       .  A
O46         Cu51   2.026       .  S
O46          C56   1.280       .  A
O47         Cu52   1.998       .  S
O47          C56   1.274       .  A
O48         Cu52   2.004       .  S
O48          C55   1.275       .  A
O49         Cu52   2.032       .  S
O49          C54   1.280       .  A
O50         Cu52   2.042       .  S
O50          C53   1.281       .  A
Cu51        Cu52   2.369       .  S
C53        C1405   1.492       .  S
C54        C1370   1.488       .  S
C55        C1357   1.481       .  S
C56        C1389   1.490       .  S
C57        C1325   1.478       .  S
C57          C58   1.411       .  A
C57          C62   1.396       .  A
C58          C59   1.412       .  A
C58          H63   1.082       .  S
C59        C1354   1.488       .  S
C59          C60   1.407       .  A
C60          C61   1.394       .  A
C60          H64   1.083       .  S
C61        C1338   1.474       .  S
C61          C62   1.393       .  A
C62          H65   1.085       .  S
C66        C1293   1.483       .  S
C66          C67   1.398       .  A
C66          C71   1.413       .  A
C67          C68   1.391       .  A
C67          H72   1.085       .  S
C68        C1306   1.465       .  S
C68          C69   1.390       .  A
C69          C70   1.402       .  A
C69          H73   1.085       .  S
C70        C1597   1.487       .  S
C70          C71   1.412       .  A
C71          H74   1.075       .  S
C75        C1258   1.489       .  S
C75          C76   1.420       .  A
C75          C80   1.399       .  A
C76          C77   1.418       .  A
C76          H81   1.083       .  S
C77        C1453   1.483       .  S
C77          C78   1.393       .  A
C78          C79   1.388       .  A
C78          H82   1.085       .  S
C79        C1274   1.462       .  S
C79          C80   1.392       .  A
C80          H83   1.084       .  S
O84         Cu92   2.020       .  S
O84          C94   1.280       .  A
O85         Cu92   2.021   1_656  S
O85          C95   1.276       .  A
O86         Cu92   2.013   1_655  S
O86          C96   1.276       .  A
O87         Cu92   2.013   1_556  S
O87          C97   1.276       .  A
O88         Cu93   2.042       .  S
O88          C97   1.282       .  A
O89         Cu93   2.036   1_654  S
O89          C96   1.281       .  A
O90         Cu93   2.021   1_655  S
O90          C95   1.278       .  A
O91         Cu93   2.019   1_554  S
O91          C94   1.277       .  A
Cu92        Cu93   2.370   1_554  S
C94        C1322   1.484       .  S
C95        C1242   1.479       .  S
C96        C1261   1.484       .  S
C97        C1290   1.487       .  S
C98        C1210   1.492       .  S
C98          C99   1.416       .  A
C98         C103   1.404       .  A
C99         C100   1.408       .  A
C99         H104   1.083       .  S
C100       C1386   1.478       .  S
C100        C101   1.394       .  A
C101        C102   1.394       .  A
C101        H105   1.085       .  S
C102       C1226   1.478       .  S
C102        C103   1.397       .  A
C103        H106   1.078       .  S
C107       C1469   1.492       .  S
C107        C108   1.401       .  A
C107        C112   1.420       .  A
C108        C109   1.389       .  A
C108        H113   1.084       .  S
C109       C1194   1.479       .  S
C109        C110   1.392       .  A
C110        C111   1.412       .  A
C110        H114   1.084       .  S
C111       C1178   1.520       .  S
C111        C112   1.424       .  A
C112        H115   1.076       .  S
C116       C1581   1.504       .  S
C116        C117   1.401       .  A
C116        C121   1.424       .  A
C117        C118   1.392       .  A
C117        H122   1.078       .  S
C118       C1162   1.472       .  S
C118        C119   1.390       .  A
C119        C120   1.403       .  A
C119        H123   1.084       .  S
C120       C1146   1.486       .  S
C120        C121   1.411       .  A
C121        H124   1.081       .  S
O125       Cu133   2.034   1_655  S
O125        C135   1.281       .  A
O126       Cu133   2.056   1_556  S
O126        C136   1.283       .  A
O127       Cu133   2.024   1_656  S
O127        C137   1.278       .  A
O128       Cu133   2.028       .  S
O128        C138   1.278       .  A
O129       Cu134   2.044       .  S
O129        C138   1.282       .  A
O130       Cu134   2.039   1_656  S
O130        C137   1.280       .  A
O131       Cu134   2.030   1_556  S
O131        C136   1.278       .  A
O132       Cu134   2.009   1_655  S
O132        C135   1.273       .  A
Cu133      Cu134   2.367       .  S
C135       C1213   1.479       .  S
C136       C1130   1.498       .  S
C137       C1181   1.491       .  S
C138       C1149   1.499       .  S
C139       C1098   1.479       .  S
C139        C140   1.410       .  A
C139        C144   1.399       .  A
C140        C141   1.410       .  A
C140        H145   1.082       .  S
C141       C1245   1.487       .  S
C141        C142   1.403       .  A
C142        C143   1.401       .  A
C142        H146   1.084       .  S
C143       C1114   1.490       .  S
C143        C144   1.399       .  A
C144        H147   1.082       .  S
C148       C1066   1.493       .  S
C148        C149   1.419       .  A
C148        C153   1.402       .  A
C149        C150   1.422       .  A
C149        H154   1.081       .  S
C150       C1133   1.487       .  S
C150        C151   1.392       .  A
C151        C152   1.385       .  A
C151        H155   1.083       .  S
C152       C1082   1.457       .  S
C152        C153   1.388       .  A
C153        H156   1.085       .  S
O157       Cu165   2.003       .  S
O157        C167   1.275       .  A
O158       Cu165   2.010       .  S
O158        C168   1.277       .  A
O159       Cu165   2.024       .  S
O159        C169   1.279       .  A
O160       Cu165   2.025       .  S
O160        C170   1.279       .  A
O161       Cu166   2.006       .  S
O161        C170   1.276       .  A
O162       Cu166   2.003       .  S
O162        C169   1.276       .  A
O163       Cu166   2.019       .  S
O163        C168   1.278       .  A
O164       Cu166   2.011       .  S
O164        C167   1.279       .  A
Cu165      Cu166   2.368       .  S
C167       C1034   1.490       .  S
C168       C1050   1.477       .  S
C169       C1101   1.494       .  S
C170       C1069   1.477       .  S
C171       C1002   1.497       .  S
C171        C172   1.422       .  A
C171        C176   1.401       .  A
C172        C173   1.422       .  A
C172        H177   1.081       .  S
C173       C1402   1.493       .  S
C173        C174   1.396       .  A
C174        C175   1.387       .  A
C174        H178   1.085       .  S
C175       C1018   1.461       .  S
C175        C176   1.388       .  A
C176        H179   1.085       .  S
C180       C1053   1.514       .  S
C180        C181   1.416       .  A
C180        C185   1.416       .  A
C181        C182   1.410       .  A
C181        H186   1.073       .  S
C182        C973   1.477       .  S
C182        C183   1.398       .  A
C183        C184   1.390       .  A
C183        H187   1.084       .  S
C184        C986   1.476       .  S
C184        C185   1.393       .  A
C185        H188   1.083       .  S
C189        C938   1.497       .  S
C189        C190   1.421       .  A
C189        C194   1.401       .  A
C190        C191   1.418       .  A
C190        H195   1.082       .  S
C191       C1517   1.493       .  S
C191        C192   1.402       .  A
C192        C193   1.390       .  A
C192        H196   1.085       .  S
C193        C954   1.467       .  S
C193        C194   1.393       .  A
C194        H197   1.083       .  S
O198       Cu206   2.028   1_544  S
O198        C208   1.279       .  A
O199       Cu206   2.010       .  S
O199        C209   1.278       .  A
O200       Cu206   2.039   1_545  S
O200        C210   1.281       .  A
O201       Cu206   2.031   1_554  S
O201        C211   1.280       .  A
O202       Cu207   2.035   1_564  S
O202        C211   1.280       .  A
O203       Cu207   2.040       .  S
O203        C210   1.280       .  A
O204       Cu207   2.008   1_565  S
O204        C209   1.276       .  A
O205       Cu207   2.020   1_554  S
O205        C208   1.279       .  A
Cu206      Cu207   2.357   1_565  S
C208       C1005   1.511       .  S
C209        C970   1.474       .  S
C210        C922   1.508       .  S
C211        C941   1.518       .  S
C212        C890   1.524       .  S
C212        C213   1.428       .  A
C212        C217   1.413       .  A
C213        C214   1.422       .  A
C213        H218   1.074       .  S
C214       C1373   1.492       .  S
C214        C215   1.395       .  A
C215        C216   1.386       .  A
C215        H219   1.084       .  S
C216        C909   1.472       .  S
C216        C217   1.391       .  A
C217        H220   1.084       .  S
C221       C1037   1.529       .  S
C221        C222   1.412       .  A
C221        C226   1.421       .  A
C222        C223   1.395       .  A
C222        H227   1.083       .  S
C223        C877   1.470       .  S
C223        C224   1.389       .  A
C224        C225   1.394       .  A
C224        H228   1.083       .  S
C225        C861   1.487       .  S
C225        C226   1.415       .  A
C226        H229   1.066       .  S
C230        C826   1.491       .  S
C230        C231   1.420       .  A
C230        C235   1.401       .  A
C231        C232   1.422       .  A
C231        H236   1.083       .  S
C232       C1533   1.506       .  S
C232        C233   1.405       .  A
C233        C234   1.394       .  A
C233        H237   1.081       .  S
C234        C842   1.479       .  S
C234        C235   1.392       .  A
C235        H238   1.084       .  S
O239       Cu247   2.024   1_554  S
O239        C249   1.278       .  A
O240       Cu247   2.024   1_565  S
O240        C250   1.278       .  A
O241       Cu247   2.033   1_564  S
O241        C251   1.280       .  A
O242       Cu247   2.031       .  S
O242        C252   1.282       .  A
O243       Cu248   2.025       .  S
O243        C252   1.275       .  A
O244       Cu248   2.029   1_564  S
O244        C251   1.278       .  A
O245       Cu248   2.025   1_565  S
O245        C250   1.279       .  A
O246       Cu248   2.008   1_554  S
O246        C249   1.277       .  A
Cu247      Cu248   2.360       .  S
C249        C810   1.485       .  S
C250        C829   1.505       .  S
C251        C893   1.490       .  S
C252        C858   1.512       .  S
C253        C778   1.537       .  S
C253        C254   1.424       .  A
C253        C258   1.413       .  A
C254        C255   1.419       .  A
C254        H259   1.066       .  S
C255       C1501   1.495       .  S
C255        C256   1.396       .  A
C256        C257   1.388       .  A
C256        H260   1.078       .  S
C257        C794   1.487       .  S
C257        C258   1.400       .  A
C258        H261   1.077       .  S
C262       C1418   1.482       .  S
C262        C263   1.398       .  A
C262        C267   1.414       .  A
C263        C264   1.392       .  A
C263        H268   1.085       .  S
C264        C762   1.475       .  S
C264        C265   1.397       .  A
C265        C266   1.408       .  A
C265        H269   1.084       .  S
C266        C749   1.499       .  S
C266        C267   1.417       .  A
C267        H270   1.080       .  S
C271       C1549   1.482       .  S
C271        C272   1.406       .  A
C271        C276   1.410       .  A
C272        C273   1.400       .  A
C272        H277   1.084       .  S
C273        C730   1.470       .  S
C273        C274   1.391       .  A
C274        C275   1.395       .  A
C274        H278   1.085       .  S
C275        C714   1.472       .  S
C275        C276   1.407       .  A
C276        H279   1.083       .  S
O280       Cu288   2.028   1_655  S
O280        C290   1.280       .  A
O281       Cu288   2.038   1_545  S
O281        C291   1.279       .  A
O282       Cu288   2.019       .  S
O282        C292   1.276       .  A
O283       Cu288   2.016   1_645  S
O283        C293   1.276       .  A
O284       Cu289   2.029   1_545  S
O284        C293   1.279   1_455  A
O285       Cu289   2.033       .  S
O285        C292   1.281       .  A
O286       Cu289   2.015   1_545  S
O286        C291   1.277       .  A
O287       Cu289   2.012   1_655  S
O287        C290   1.276       .  A
Cu288      Cu289   2.364       .  S
C290        C781   1.502       .  S
C291        C698   1.484       .  S
C292        C717   1.489       .  S
C293        C746   1.481       .  S
C294        C925   1.485       .  S
C294        C295   1.405       .  A
C294        C299   1.414       .  A
C295        C296   1.396       .  A
C295        H300   1.084       .  S
C296        C685   1.480       .  S
C296        C297   1.395       .  A
C297        C298   1.404       .  A
C297        H301   1.085       .  S
C298        C666   1.493       .  S
C298        C299   1.414       .  A
C299        H302   1.082       .  S
C303        C637   1.491       .  S
C303        C304   1.417       .  A
C303        C308   1.404       .  A
C304        C305   1.414       .  A
C304        H309   1.081       .  S
C305        C813   1.481       .  S
C305        C306   1.396       .  A
C306        C307   1.389       .  A
C306        H310   1.085       .  S
C307        C650   1.467       .  S
C307        C308   1.392       .  A
C308        H311   1.084       .  S
C312        C602   1.477       .  S
C312        C313   1.405       .  A
C312        C317   1.402       .  A
C313        C314   1.406       .  A
C313        H318   1.083       .  S
C314        C701   1.480       .  S
C314        C315   1.396       .  A
C315        C316   1.405       .  A
C315        H319   1.083       .  S
C316        C618   1.494       .  S
C316        C317   1.400       .  A
C317        H320   1.078       .  S
O321       Cu329   2.050       .  S
O321        C331   1.283       .  A
O322       Cu329   2.050       .  S
O322        C332   1.284       .  A
O323       Cu329   1.993       .  S
O323        C333   1.273       .  A
O324       Cu329   2.008       .  S
O324        C334   1.274       .  A
O325       Cu330   2.034       .  S
O325        C334   1.283       .  A
O326       Cu330   2.026       .  S
O326        C333   1.282       .  A
O327       Cu330   2.005       .  S
O327        C332   1.274       .  A
O328       Cu330   2.015       .  S
O328        C331   1.276       .  A
Cu329      Cu330   2.369       .  S
C331        C669   1.488       .  S
C332        C634   1.484       .  S
C333        C605   1.491       .  S
C334        C586   1.485       .  S
C335       C1485   1.491       .  S
C335        C336   1.397       .  A
C335        C340   1.419       .  A
C336        C337   1.389       .  A
C336        H341   1.083       .  S
C337        C573   1.473       .  S
C337        C338   1.389       .  A
C338        C339   1.411       .  A
C338        H342   1.082       .  S
C339        C554   1.514       .  S
C339        C340   1.422       .  A
C340        H343   1.076       .  S
C344       C1437   1.491       .  S
C344        C345   1.398       .  A
C344        C349   1.419       .  A
C345        C346   1.391       .  A
C345        H350   1.084       .  S
C346        C538   1.469       .  S
C346        C347   1.393       .  A
C347        C348   1.403       .  A
C347        H351   1.082       .  S
C348        C522   1.507       .  S
C348        C349   1.426       .  A
C349        H352   1.082       .  S
C353        C589   1.485       .  S
C353        C354   1.398       .  A
C353        C358   1.411       .  A
C354        C355   1.395       .  A
C354        H359   1.085       .  S
C355        C509   1.472       .  S
C355        C356   1.391       .  A
C356        C357   1.396       .  A
C356        H360   1.080       .  S
C357        C490   1.475       .  S
C357        C358   1.413       .  A
C358        H361   1.083       .  S
C362       C1565   1.500       .  S
C362        C363   1.401       .  A
C362        C367   1.424       .  A
C363        C364   1.394       .  A
C363        H368   1.083       .  S
C364        C474   1.471       .  S
C364        C365   1.392       .  A
C365        C366   1.404       .  A
C365        H369   1.085       .  S
C366        C461   1.499       .  S
C366        C367   1.422       .  A
C367        H370   1.082       .  S
O371       Cu379   2.060   1_655  S
O371        C381   1.284       .  A
O372       Cu379   2.050   1_545  S
O372        C382   1.282       .  A
O373       Cu379   2.027       .  S
O373        C383   1.279       .  A
O374       Cu379   2.008   1_645  S
O374        C384   1.276       .  A
O375       Cu380   2.026   1_645  S
O375        C384   1.278       .  A
O376       Cu380   2.033       .  S
O376        C383   1.279       .  A
O377       Cu380   2.029   1_545  S
O377        C382   1.277       .  A
O378       Cu380   2.045   1_655  S
O378        C381   1.280       .  A
Cu379      Cu380   2.365       .  S
C381        C525   1.506       .  S
C382        C458   1.496       .  S
C383        C557   1.488       .  S
C384        C493   1.479       .  S
C385       C1021   1.466       .  S
C385        C386   1.398       .  A
C385        C390   1.398       .  A
C386        C387   1.397       .  A
C386        H391   1.085       .  S
C387       C1277   1.465       .  S
C387        C388   1.395       .  A
C388        C389   1.395       .  A
C388        H392   1.083       .  S
C389        C506   1.457       .  S
C389        C390   1.395       .  A
C390        H393   1.084       .  S
C394       C1229   1.460       .  S
C394        C395   1.393       .  A
C394        C399   1.395       .  A
C395        C396   1.398       .  A
C395        H400   1.085       .  S
C396        C957   1.473       .  S
C396        C397   1.402       .  A
C397        C398   1.403       .  A
C397        H401   1.082       .  S
C398        C541   1.472       .  S
C398        C399   1.396       .  A
C399        H402   1.083       .  S
C403        C906   1.469       .  S
C403        C404   1.397       .  A
C403        C408   1.398       .  A
C404        C405   1.397       .  A
C404        H409   1.082       .  S
C405       C1165   1.472       .  S
C405        C406   1.403       .  A
C406        C407   1.400       .  A
C406        H410   1.083       .  S
C407        C570   1.473       .  S
C407        C408   1.399       .  A
C408        H411   1.084       .  S
C412        C733   1.479       .  S
C412        C413   1.400       .  A
C412        C417   1.404       .  A
C413        C414   1.398       .  A
C413        H418   1.077       .  S
C414       C1085   1.482       .  S
C414        C415   1.402       .  A
C415        C416   1.395       .  A
C415        H419   1.081       .  S
C416        C845   1.477       .  S
C416        C417   1.403       .  A
C417        H420   1.084       .  S
C421        C621   1.491       .  S
C421        C422   1.407       .  A
C421        C426   1.406       .  A
C422        C423   1.399       .  A
C422        H427   1.079       .  S
C423       C1309   1.465       .  S
C423        C424   1.392       .  A
C424        C425   1.393       .  A
C424        H428   1.085       .  S
C425        C874   1.465       .  S
C425        C426   1.398       .  A
C426        H429   1.083       .  S
C430        C682   1.477       .  S
C430        C431   1.399       .  A
C430        C435   1.398       .  A
C431        C432   1.410       .  A
C431        H436   1.083       .  S
C432       C1117   1.500       .  S
C432        C433   1.410       .  A
C433        C434   1.405       .  A
C433        H437   1.077       .  S
C434        C765   1.478       .  S
C434        C435   1.397       .  A
C435        H438   1.084       .  S
C439       C1197   1.477       .  S
C439        C440   1.401       .  A
C439        C444   1.400       .  A
C440        C441   1.403       .  A
C440        H445   1.084       .  S
C441        C989   1.482       .  S
C441        C442   1.401       .  A
C442        C443   1.410       .  A
C442        H446   1.081       .  S
C443        C797   1.502       .  S
C443        C444   1.406       .  A
C444        H447   1.078       .  S
C448       C1341   1.470       .  S
C448        C449   1.397       .  A
C448        C453   1.401       .  A
C449        C450   1.397       .  A
C449        H454   1.084       .  S
C450        C653   1.472       .  S
C450        C451   1.397       .  A
C451        C452   1.403       .  A
C451        H455   1.082       .  S
C452        C477   1.483       .  S
C452        C453   1.403       .  A
C453        H456   1.081       .  S
C457        C458   1.407       .  A
C457        C462   1.420       .  A
C457        H464   1.083   1_455  S
C458        C459   1.415       .  A
C459        C460   1.408       .  A
C459        C466   1.511       .  S
C460        C461   1.405       .  A
C460        H465   1.083       .  S
C461        C462   1.420       .  A
C462        C463   1.516   1_455  S
C463        F467   1.384       .  S
C463        F468   1.383   1_655  S
C463        F469   1.382       .  S
C466        F470   1.383       .  S
C466        F471   1.381       .  S
C466        F472   1.384       .  S
C473        C474   1.400       .  A
C473        C478   1.407       .  A
C473        H480   1.084       .  S
C474        C475   1.412       .  A
C475        C476   1.399       .  A
C475        C482   1.519       .  S
C476        C477   1.404       .  A
C476        H481   1.083       .  S
C477        C478   1.423       .  A
C478        C479   1.521       .  S
C479        F483   1.385       .  S
C479        F484   1.384       .  S
C479        F485   1.381       .  S
C482        F486   1.383       .  S
C482        F487   1.376       .  S
C482        F488   1.385       .  S
C489        C490   1.399       .  A
C489        C494   1.403       .  A
C489        H496   1.083       .  S
C490        C491   1.419       .  A
C491        C492   1.409       .  A
C491        C498   1.519       .  S
C492        C493   1.402       .  A
C492        H497   1.083       .  S
C493        C494   1.414       .  A
C494        C495   1.508   1_545  S
C495        F499   1.385       .  S
C495        F500   1.383       .  S
C495        F501   1.382       .  S
C498        F502   1.383       .  S
C498        F503   1.380       .  S
C498        F504   1.383       .  S
C505        C506   1.398       .  A
C505        C510   1.400       .  A
C505        H512   1.084       .  S
C506        C507   1.408       .  A
C507        C508   1.396       .  A
C507        C514   1.517       .  S
C508        C509   1.405       .  A
C508        H513   1.083       .  S
C509        C510   1.421       .  A
C510        C511   1.522       .  S
C511        F515   1.385       .  S
C511        F516   1.383       .  S
C511        F517   1.382       .  S
C514        F518   1.381       .  S
C514        F519   1.383       .  S
C514        F520   1.384       .  S
C521        C522   1.397       .  A
C521        C526   1.411       .  A
C521        H528   1.084       .  S
C522        C523   1.426       .  A
C523        C524   1.410       .  A
C523        C530   1.518       .  S
C524        C525   1.400       .  A
C524        H529   1.074       .  S
C525        C526   1.424       .  A
C526        C527   1.496   1_655  S
C527        F531   1.378       .  S
C527        F532   1.376       .  S
C527        F533   1.381       .  S
C530        F534   1.381       .  S
C530        F535   1.383       .  S
C530        F536   1.384       .  S
C537        C538   1.400       .  A
C537        C542   1.402       .  A
C537        H544   1.083       .  S
C538        C539   1.416       .  A
C539        C540   1.402       .  A
C539        C546   1.521       .  S
C540        C541   1.401       .  A
C540        H545   1.083       .  S
C541        C542   1.418       .  A
C542        C543   1.521       .  S
C543        F547   1.385       .  S
C543        F548   1.383       .  S
C543        F549   1.381       .  S
C546        F550   1.382       .  S
C546        F551   1.381       .  S
C546        F552   1.384       .  S
C553        C554   1.410       .  A
C553        C558   1.398       .  A
C553        H560   1.084       .  S
C554        C555   1.425       .  A
C555        C556   1.420       .  A
C555        C562   1.517   1_565  S
C556        C557   1.408       .  A
C556        H561   1.076   1_565  S
C557        C558   1.412       .  A
C558        C559   1.515       .  S
C559        F563   1.383       .  S
C559        F564   1.378       .  S
C559        F565   1.380       .  S
C562        F566   1.383       .  S
C562        F567   1.381       .  S
C562        F568   1.384       .  S
C569        C570   1.403       .  A
C569        C574   1.402       .  A
C569        H576   1.084       .  S
C570        C571   1.416       .  A
C571        C572   1.403       .  A
C571        C578   1.520       .  S
C572        C573   1.403       .  A
C572        H577   1.083       .  S
C573        C574   1.415       .  A
C574        C575   1.520       .  S
C575        F579   1.384       .  S
C575        F580   1.383       .  S
C575        F581   1.381       .  S
C578        F582   1.383       .  S
C578        F583   1.381       .  S
C578        F584   1.385       .  S
C585        C586   1.404       .  A
C585        C590   1.408       .  A
C585        H592   1.078       .  S
C586        C587   1.414       .  A
C587        C588   1.407       .  A
C587        C594   1.514       .  S
C588        C589   1.406       .  A
C588        H593   1.083       .  S
C589        C590   1.416       .  A
C590        C591   1.519       .  S
C591        F595   1.384       .  S
C591        F596   1.383       .  S
C591        F597   1.382       .  S
C594        F598   1.381       .  S
C594        F599   1.381       .  S
C594        F600   1.385       .  S
C601        C602   1.397       .  A
C601        C606   1.406       .  A
C601        H608   1.083       .  S
C602        C603   1.414       .  A
C603        C604   1.408       .  A
C603        C610   1.518       .  S
C604        C605   1.406       .  A
C604        H609   1.083       .  S
C605        C606   1.428       .  A
C606        C607   1.522       .  S
C607        F611   1.385       .  S
C607        F612   1.381       .  S
C607        F613   1.382       .  S
C610        F614   1.382       .  S
C610        F615   1.382       .  S
C610        F616   1.380   1_545  S
C617        C618   1.406       .  A
C617        C622   1.392       .  A
C617        H624   1.081       .  S
C618        C619   1.425       .  A
C619        C620   1.405       .  A
C619        C626   1.521       .  S
C620        C621   1.408       .  A
C620        H625   1.082       .  S
C621        C622   1.417       .  A
C622        C623   1.518       .  S
C623        F627   1.386       .  S
C623        F628   1.382       .  S
C623        F629   1.379       .  S
C626        F630   1.383       .  S
C626        F631   1.381       .  S
C626        F632   1.385       .  S
C633        C634   1.403       .  A
C633        C638   1.411       .  A
C633        H640   1.074       .  S
C634        C635   1.420       .  A
C635        C636   1.405       .  A
C635        C642   1.518       .  S
C636        C637   1.406       .  A
C636        H641   1.085       .  S
C637        C638   1.417       .  A
C638        C639   1.519       .  S
C639        F643   1.385       .  S
C639        F644   1.383       .  S
C639        F645   1.382       .  S
C642        F646   1.383       .  S
C642        F647   1.374       .  S
C642        F648   1.376       .  S
C649        C650   1.400       .  A
C649        C654   1.400       .  A
C649        H656   1.084       .  S
C650        C651   1.412       .  A
C651        C652   1.402       .  A
C651        C658   1.519       .  S
C652        C653   1.404       .  A
C652        H657   1.083       .  S
C653        C654   1.417       .  A
C654        C655   1.521       .  S
C655        F659   1.385       .  S
C655        F660   1.383       .  S
C655        F661   1.381       .  S
C658        F662   1.384       .  S
C658        F663   1.382       .  S
C658        F664   1.385       .  S
C665        C666   1.399       .  A
C665        C670   1.398       .  A
C665        H672   1.085       .  S
C666        C667   1.420       .  A
C667        C668   1.420       .  A
C667        C674   1.516       .  S
C668        C669   1.408       .  A
C668        H673   1.083       .  S
C669        C670   1.417       .  A
C670        C671   1.509       .  S
C671        F675   1.382       .  S
C671        F676   1.373       .  S
C671        F677   1.384       .  S
C674        F678   1.384       .  S
C674        F679   1.381       .  S
C674        F680   1.385       .  S
C681        C682   1.400       .  A
C681        C686   1.403       .  A
C681        H688   1.083       .  S
C682        C683   1.418       .  A
C683        C684   1.405       .  A
C683        C690   1.520       .  S
C684        C685   1.403       .  A
C684        H689   1.083       .  S
C685        C686   1.417       .  A
C686        C687   1.517       .  S
C687        F691   1.385       .  S
C687        F692   1.384       .  S
C687        F693   1.380       .  S
C690        F694   1.384       .  S
C690        F695   1.380       .  S
C690        F696   1.385       .  S
C697        C698   1.398       .  A
C697        C702   1.405       .  A
C697        H704   1.085       .  S
C698        C699   1.416       .  A
C699        C700   1.403       .  A
C699        C706   1.497   1_545  S
C700        C701   1.395       .  A
C700        H705   1.083       .  S
C701        C702   1.425       .  A
C702        C703   1.518       .  S
C703        F707   1.384       .  S
C703        F708   1.382       .  S
C703        F709   1.383       .  S
C706        F710   1.377       .  S
C706        F711   1.383       .  S
C706        F712   1.385       .  S
C713        C714   1.393       .  A
C713        C718   1.399       .  A
C713        H720   1.086       .  S
C714        C715   1.410       .  A
C715        C716   1.411       .  A
C715        C722   1.515   1_455  S
C716        C717   1.409       .  A
C716        H721   1.083   1_455  S
C717        C718   1.427       .  A
C718        C719   1.508       .  S
C719        F723   1.383       .  S
C719        F724   1.381       .  S
C719        F725   1.372       .  S
C722        F726   1.383   1_655  S
C722        F727   1.383       .  S
C722        F728   1.384       .  S
C729        C730   1.400       .  A
C729        C734   1.401       .  A
C729        H736   1.085       .  S
C730        C731   1.414       .  A
C731        C732   1.402       .  A
C731        C738   1.518       .  S
C732        C733   1.404       .  A
C732        H737   1.083       .  S
C733        C734   1.420       .  A
C734        C735   1.518       .  S
C735        F739   1.384       .  S
C735        F740   1.382       .  S
C735        F741   1.383       .  S
C738        F742   1.384       .  S
C738        F743   1.380       .  S
C738        F744   1.385       .  S
C745        C746   1.403   1_455  A
C745        C750   1.416   1_455  A
C745        H752   1.083       .  S
C746        C747   1.413       .  A
C747        C748   1.406       .  A
C747        C754   1.519       .  S
C748        C749   1.408       .  A
C748        H753   1.083       .  S
C749        C750   1.424       .  A
C750        C751   1.518   1_655  S
C751        F755   1.385       .  S
C751        F756   1.383       .  S
C751        F757   1.381       .  S
C754        F758   1.383       .  S
C754        F759   1.380       .  S
C754        F760   1.384       .  S
C761        C762   1.399       .  A
C761        C766   1.401       .  A
C761        H768   1.085       .  S
C762        C763   1.416       .  A
C763        C764   1.407       .  A
C763        C770   1.519       .  S
C764        C765   1.403       .  A
C764        H769   1.083       .  S
C765        C766   1.419       .  A
C766        C767   1.518       .  S
C767        F771   1.384       .  S
C767        F772   1.381       .  S
C767        F773   1.382       .  S
C770        F774   1.384       .  S
C770        F775   1.381       .  S
C770        F776   1.384       .  S
C777        C778   1.417       .  A
C777        C782   1.408       .  A
C777        H784   1.080       .  S
C778        C779   1.427       .  A
C779        C780   1.418       .  A
C779        C786   1.512       .  S
C780        C781   1.405       .  A
C780        H785   1.082       .  S
C781        C782   1.419       .  A
C782        C783   1.522       .  S
C783        F787   1.385       .  S
C783        F788   1.382       .  S
C783        F789   1.384       .  S
C786        F790   1.384   1_565  S
C786        F791   1.383       .  S
C786        F792   1.375   1_565  S
C793        C794   1.403       .  A
C793        C798   1.397       .  A
C793        H800   1.084       .  S
C794        C795   1.422       .  A
C795        C796   1.403       .  A
C795        C802   1.524       .  S
C796        C797   1.410       .  A
C796        H801   1.078       .  S
C797        C798   1.423       .  A
C798        C799   1.517       .  S
C799        F803   1.386       .  S
C799        F804   1.383       .  S
C799        F805   1.378       .  S
C802        F806   1.381       .  S
C802        F807   1.384       .  S
C802        F808   1.386       .  S
C809        C810   1.405       .  A
C809        C814   1.411       .  A
C809        H816   1.081   1_545  S
C810        C811   1.418       .  A
C811        C812   1.405       .  A
C811        C818   1.518       .  S
C812        C813   1.402       .  A
C812        H817   1.083       .  S
C813        C814   1.415       .  A
C814        C815   1.517   1_545  S
C815        F819   1.384       .  S
C815        F820   1.383   1_565  S
C815        F821   1.383       .  S
C818        F822   1.383       .  S
C818        F823   1.378       .  S
C818        F824   1.385       .  S
C825        C826   1.403       .  A
C825        C830   1.411       .  A
C825        H832   1.083       .  S
C826        C827   1.414       .  A
C827        C828   1.414       .  A
C827        C834   1.516       .  S
C828        C829   1.413       .  A
C828        H833   1.083       .  S
C829        C830   1.427       .  A
C830        C831   1.521   1_565  S
C831        F835   1.385       .  S
C831        F836   1.384       .  S
C831        F837   1.383   1_545  S
C834        F838   1.383       .  S
C834        F839   1.383       .  S
C834        F840   1.384       .  S
C841        C842   1.403       .  A
C841        C846   1.405       .  A
C841        H848   1.083       .  S
C842        C843   1.421       .  A
C843        C844   1.401       .  A
C843        C850   1.523       .  S
C844        C845   1.400       .  A
C844        H849   1.083       .  S
C845        C846   1.418       .  A
C846        C847   1.521       .  S
C847        F851   1.385       .  S
C847        F852   1.383       .  S
C847        F853   1.381       .  S
C850        F854   1.381       .  S
C850        F855   1.381       .  S
C850        F856   1.385       .  S
C857        C858   1.412       .  A
C857        C862   1.408       .  A
C857        H864   1.084   1_556  S
C858        C859   1.437       .  A
C859        C860   1.404       .  A
C859        C866   1.507       .  S
C860        C861   1.389       .  A
C860        H865   1.086       .  S
C861        C862   1.416       .  A
C862        C863   1.517   1_556  S
C863        F867   1.382   1_554  S
C863        F868   1.382   1_554  S
C863        F869   1.384       .  S
C866        F870   1.378       .  S
C866        F871   1.366       .  S
C866        F872   1.383       .  S
C873        C874   1.402       .  A
C873        C878   1.402       .  A
C873        H880   1.083       .  S
C874        C875   1.414       .  A
C875        C876   1.398       .  A
C875        C882   1.522       .  S
C876        C877   1.403       .  A
C876        H881   1.084       .  S
C877        C878   1.412       .  A
C878        C879   1.516       .  S
C879        F883   1.384       .  S
C879        F884   1.383       .  S
C879        F885   1.379       .  S
C882        F886   1.383       .  S
C882        F887   1.381       .  S
C882        F888   1.385       .  S
C889        C890   1.414       .  A
C889        C894   1.402       .  A
C889        H896   1.082       .  S
C890        C891   1.431       .  A
C891        C892   1.423       .  A
C891        C898   1.516   1_554  S
C892        C893   1.405       .  A
C892        H897   1.083   1_554  S
C893        C894   1.410       .  A
C894        C895   1.518       .  S
C895        F899   1.385       .  S
C895        F900   1.383       .  S
C895        F901   1.373       .  S
C898        F902   1.382       .  S
C898        F903   1.382       .  S
C898        F904   1.384       .  S
C905        C906   1.400       .  A
C905        C910   1.401       .  A
C905        H912   1.084       .  S
C906        C907   1.415       .  A
C907        C908   1.402       .  A
C907        C914   1.520       .  S
C908        C909   1.402       .  A
C908        H913   1.083       .  S
C909        C910   1.417       .  A
C910        C911   1.521       .  S
C911        F915   1.385       .  S
C911        F916   1.383       .  S
C911        F917   1.381       .  S
C914        F918   1.384       .  S
C914        F919   1.381       .  S
C914        F920   1.385       .  S
C921        C922   1.410   1_565  A
C921        C926   1.416   1_565  A
C921        H928   1.083       .  S
C922        C923   1.424       .  A
C923        C924   1.405       .  A
C923        C930   1.500       .  S
C924        C925   1.389       .  A
C924        H929   1.084       .  S
C925        C926   1.414       .  A
C926        C927   1.514   1_545  S
C927        F931   1.384       .  S
C927        F932   1.379   1_565  S
C927        F933   1.383       .  S
C930        F934   1.382       .  S
C930        F935   1.376       .  S
C930        F936   1.385       .  S
C937        C938   1.396       .  A
C937        C942   1.411       .  A
C937        H944   1.083       .  S
C938        C939   1.424       .  A
C939        C940   1.411       .  A
C939        C946   1.520       .  S
C940        C941   1.408       .  A
C940        H945   1.084       .  S
C941        C942   1.429       .  A
C942        C943   1.502       .  S
C943        F947   1.384       .  S
C943        F948   1.379       .  S
C943        F949   1.376   1_565  S
C946        F950   1.383       .  S
C946        F951   1.382       .  S
C946        F952   1.384       .  S
C953        C954   1.400       .  A
C953        C958   1.400       .  A
C953        H960   1.083       .  S
C954        C955   1.409       .  A
C955        C956   1.403       .  A
C955        C962   1.516       .  S
C956        C957   1.407       .  A
C956        H961   1.083       .  S
C957        C958   1.417       .  A
C958        C959   1.521       .  S
C959        F963   1.385       .  S
C959        F964   1.383       .  S
C959        F965   1.381       .  S
C962        F966   1.383       .  S
C962        F967   1.382       .  S
C962        F968   1.385       .  S
C969        C970   1.401       .  A
C969        C974   1.404       .  A
C969        H976   1.084       .  S
C970        C971   1.416       .  A
C971        C972   1.408       .  A
C971        C978   1.517   1_556  S
C972        C973   1.401       .  A
C972        H977   1.083       .  S
C973        C974   1.418       .  A
C974        C975   1.519       .  S
C975        F979   1.385       .  S
C975        F980   1.383       .  S
C975        F981   1.382       .  S
C978        F982   1.384       .  S
C978        F983   1.382       .  S
C978        F984   1.385       .  S
C985        C986   1.398       .  A
C985        C990   1.405       .  A
C985        H992   1.083       .  S
C986        C987   1.416       .  A
C987        C988   1.406       .  A
C987        C994   1.519       .  S
C988        C989   1.402       .  A
C988        H993   1.083       .  S
C989        C990   1.422       .  A
C990        C991   1.520       .  S
C991        F995   1.385       .  S
C991        F996   1.383       .  S
C991        F997   1.380       .  S
C994        F998   1.384       .  S
C994        F999   1.382       .  S
C994       F1000   1.384       .  S
C1001      C1002   1.406       .  A
C1001      C1006   1.412       .  A
C1001      H1008   1.082       .  S
C1002      C1003   1.412       .  A
C1003      C1004   1.413       .  A
C1003      C1010   1.517       .  S
C1004      C1005   1.414       .  A
C1004      H1009   1.079       .  S
C1005      C1006   1.427       .  A
C1006      C1007   1.522       .  S
C1007      F1011   1.385       .  S
C1007      F1012   1.383   1_554  S
C1007      F1013   1.384       .  S
C1010      F1014   1.381       .  S
C1010      F1015   1.383       .  S
C1010      F1016   1.381       .  S
C1017      C1018   1.398       .  A
C1017      C1022   1.398       .  A
C1017      H1024   1.085       .  S
C1018      C1019   1.415       .  A
C1019      C1020   1.397       .  A
C1019      C1026   1.521       .  S
C1020      C1021   1.401       .  A
C1020      H1025   1.083       .  S
C1021      C1022   1.417       .  A
C1022      C1023   1.518       .  S
C1023      F1027   1.385       .  S
C1023      F1028   1.382       .  S
C1023      F1029   1.382       .  S
C1026      F1030   1.384       .  S
C1026      F1031   1.380       .  S
C1026      F1032   1.385       .  S
C1033      C1034   1.400       .  A
C1033      C1038   1.412       .  A
C1033      H1040   1.083       .  S
C1034      C1035   1.417       .  A
C1035      C1036   1.407       .  A
C1035      C1042   1.522       .  S
C1036      C1037   1.416       .  A
C1036      H1041   1.081       .  S
C1037      C1038   1.428       .  A
C1038      C1039   1.509       .  S
C1039      F1043   1.378   1_556  S
C1039      F1044   1.383       .  S
C1039      F1045   1.381   1_556  S
C1042      F1046   1.383       .  S
C1042      F1047   1.384       .  S
C1042      F1048   1.385       .  S
C1049      C1050   1.400       .  A
C1049      C1054   1.415       .  A
C1049      H1056   1.080       .  S
C1050      C1051   1.409       .  A
C1051      C1052   1.398       .  A
C1051      C1058   1.519       .  S
C1052      C1053   1.412       .  A
C1052      H1057   1.082       .  S
C1053      C1054   1.433       .  A
C1054      C1055   1.518       .  S
C1055      F1059   1.385       .  S
C1055      F1060   1.382       .  S
C1055      F1061   1.381       .  S
C1058      F1062   1.382       .  S
C1058      F1063   1.373       .  S
C1058      F1064   1.385       .  S
C1065      C1066   1.409       .  A
C1065      C1070   1.403       .  A
C1065      H1072   1.083       .  S
C1066      C1067   1.419       .  A
C1067      C1068   1.415       .  A
C1067      C1074   1.516       .  S
C1068      C1069   1.404       .  A
C1068      H1073   1.083       .  S
C1069      C1070   1.409       .  A
C1070      C1071   1.517       .  S
C1071      F1075   1.384       .  S
C1071      F1076   1.383       .  S
C1071      F1077   1.380       .  S
C1074      F1078   1.383       .  S
C1074      F1079   1.382       .  S
C1074      F1080   1.385       .  S
C1081      C1082   1.395       .  A
C1081      C1086   1.400       .  A
C1081      H1088   1.085       .  S
C1082      C1083   1.407       .  A
C1083      C1084   1.397       .  A
C1083      C1090   1.519       .  S
C1084      C1085   1.409       .  A
C1084      H1089   1.082       .  S
C1085      C1086   1.426       .  A
C1086      C1087   1.522       .  S
C1087      F1091   1.385       .  S
C1087      F1092   1.382       .  S
C1087      F1093   1.383       .  S
C1090      F1094   1.383       .  S
C1090      F1095   1.383       .  S
C1090      F1096   1.384       .  S
C1097      C1098   1.399       .  A
C1097      C1102   1.405       .  A
C1097      H1104   1.084       .  S
C1098      C1099   1.413       .  A
C1099      C1100   1.410       .  A
C1099      C1106   1.516       .  S
C1100      C1101   1.409       .  A
C1100      H1105   1.083       .  S
C1101      C1102   1.423       .  A
C1102      C1103   1.515       .  S
C1103      F1107   1.385       .  S
C1103      F1108   1.383       .  S
C1103      F1109   1.375   1_556  S
C1106      F1110   1.382       .  S
C1106      F1111   1.383       .  S
C1106      F1112   1.385       .  S
C1113      C1114   1.406       .  A
C1113      C1118   1.403       .  A
C1113      H1120   1.083       .  S
C1114      C1115   1.419       .  A
C1115      C1116   1.401       .  A
C1115      C1122   1.521       .  S
C1116      C1117   1.410       .  A
C1116      H1121   1.082       .  S
C1117      C1118   1.424       .  A
C1118      C1119   1.518       .  S
C1119      F1123   1.386       .  S
C1119      F1124   1.382       .  S
C1119      F1125   1.379       .  S
C1122      F1126   1.383       .  S
C1122      F1127   1.383       .  S
C1122      F1128   1.385       .  S
C1129      C1130   1.403       .  A
C1129      C1134   1.414       .  A
C1129      H1136   1.084       .  S
C1130      C1131   1.417       .  A
C1131      C1132   1.403       .  A
C1131      C1138   1.492   1_556  S
C1132      C1133   1.394       .  A
C1132      H1137   1.083       .  S
C1133      C1134   1.427       .  A
C1134      C1135   1.526       .  S
C1135      F1139   1.382       .  S
C1135      F1140   1.383       .  S
C1135      F1141   1.379       .  S
C1138      F1142   1.376       .  S
C1138      F1143   1.382       .  S
C1138      F1144   1.385       .  S
C1145      C1146   1.396       .  A
C1145      C1150   1.397       .  A
C1145      H1152   1.084       .  S
C1146      C1147   1.416       .  A
C1147      C1148   1.420       .  A
C1147      C1154   1.513   1_455  S
C1148      C1149   1.410       .  A
C1148      H1153   1.082   1_455  S
C1149      C1150   1.412       .  A
C1150      C1151   1.493       .  S
C1151      F1155   1.383       .  S
C1151      F1156   1.374       .  S
C1151      F1157   1.378       .  S
C1154      F1158   1.383       .  S
C1154      F1159   1.383       .  S
C1154      F1160   1.384       .  S
C1161      C1162   1.403       .  A
C1161      C1166   1.403       .  A
C1161      H1168   1.083       .  S
C1162      C1163   1.416       .  A
C1163      C1164   1.401       .  A
C1163      C1170   1.521       .  S
C1164      C1165   1.401       .  A
C1164      H1169   1.083       .  S
C1165      C1166   1.416       .  A
C1166      C1167   1.521       .  S
C1167      F1171   1.385       .  S
C1167      F1172   1.383       .  S
C1167      F1173   1.381       .  S
C1170      F1174   1.383       .  S
C1170      F1175   1.381       .  S
C1170      F1176   1.384       .  S
C1177      C1178   1.407       .  A
C1177      C1182   1.399       .  A
C1177      H1184   1.084       .  S
C1178      C1179   1.426       .  A
C1179      C1180   1.423   1_655  A
C1179      C1186   1.511   1_655  S
C1180      C1181   1.408   1_455  A
C1180      H1185   1.084       .  S
C1181      C1182   1.418       .  A
C1182      C1183   1.517       .  S
C1183      F1187   1.383       .  S
C1183      F1188   1.377       .  S
C1183      F1189   1.382       .  S
C1186      F1190   1.383       .  S
C1186      F1191   1.375       .  S
C1186      F1192   1.383       .  S
C1193      C1194   1.398       .  A
C1193      C1198   1.400       .  A
C1193      H1200   1.085       .  S
C1194      C1195   1.421       .  A
C1195      C1196   1.407       .  A
C1195      C1202   1.520       .  S
C1196      C1197   1.400       .  A
C1196      H1201   1.083       .  S
C1197      C1198   1.420       .  A
C1198      C1199   1.516       .  S
C1199      F1203   1.384       .  S
C1199      F1204   1.381       .  S
C1199      F1205   1.383       .  S
C1202      F1206   1.384       .  S
C1202      F1207   1.381       .  S
C1202      F1208   1.385       .  S
C1209      C1210   1.401       .  A
C1209      C1214   1.405       .  A
C1209      H1216   1.085       .  S
C1210      C1211   1.424       .  A
C1211      C1212   1.405       .  A
C1211      C1218   1.518       .  S
C1212      C1213   1.401       .  A
C1212      H1217   1.084       .  S
C1213      C1214   1.418       .  A
C1214      C1215   1.508   1_554  S
C1215      F1219   1.378       .  S
C1215      F1220   1.380       .  S
C1215      F1221   1.379       .  S
C1218      F1222   1.383       .  S
C1218      F1223   1.383       .  S
C1218      F1224   1.382       .  S
C1225      C1226   1.407       .  A
C1225      C1230   1.396       .  A
C1225      H1232   1.082       .  S
C1226      C1227   1.421       .  A
C1227      C1228   1.401       .  A
C1227      C1234   1.519       .  S
C1228      C1229   1.398       .  A
C1228      H1233   1.085       .  S
C1229      C1230   1.409       .  A
C1230      C1231   1.520       .  S
C1231      F1235   1.385       .  S
C1231      F1236   1.383       .  S
C1231      F1237   1.383       .  S
C1234      F1238   1.382       .  S
C1234      F1239   1.383       .  S
C1234      F1240   1.384       .  S
C1241      C1242   1.406       .  A
C1241      C1246   1.417       .  A
C1241      H1248   1.083   1_556  S
C1242      C1243   1.411       .  A
C1243      C1244   1.400       .  A
C1243      C1250   1.511       .  S
C1244      C1245   1.404       .  A
C1244      H1249   1.084       .  S
C1245      C1246   1.419       .  A
C1246      C1247   1.515   1_556  S
C1247      F1251   1.385       .  S
C1247      F1252   1.383       .  S
C1247      F1253   1.382       .  S
C1250      F1254   1.382       .  S
C1250      F1255   1.383       .  S
C1250      F1256   1.385       .  S
C1257      C1258   1.404       .  A
C1257      C1262   1.412   1_655  A
C1257      H1264   1.083   1_655  S
C1258      C1259   1.422       .  A
C1259      C1260   1.408       .  A
C1259      C1266   1.520       .  S
C1260      C1261   1.401       .  A
C1260      H1265   1.084       .  S
C1261      C1262   1.417   1_655  A
C1262      C1263   1.513       .  S
C1263      F1267   1.384       .  S
C1263      F1268   1.379       .  S
C1263      F1269   1.382       .  S
C1266      F1270   1.383       .  S
C1266      F1271   1.380       .  S
C1266      F1272   1.384       .  S
C1273      C1274   1.399       .  A
C1273      C1278   1.401       .  A
C1273      H1280   1.084       .  S
C1274      C1275   1.414       .  A
C1275      C1276   1.397       .  A
C1275      C1282   1.521       .  S
C1276      C1277   1.400       .  A
C1276      H1281   1.084       .  S
C1277      C1278   1.417       .  A
C1278      C1279   1.520       .  S
C1279      F1283   1.385       .  S
C1279      F1284   1.383       .  S
C1279      F1285   1.381       .  S
C1282      F1286   1.383       .  S
C1282      F1287   1.381       .  S
C1282      F1288   1.384       .  S
C1289      C1290   1.405       .  A
C1289      C1294   1.410       .  A
C1289      H1296   1.073   1_455  S
C1290      C1291   1.420       .  A
C1291      C1292   1.406       .  A
C1291      C1298   1.515       .  S
C1292      C1293   1.401       .  A
C1292      H1297   1.085       .  S
C1293      C1294   1.413       .  A
C1294      C1295   1.517   1_455  S
C1295      F1299   1.384       .  S
C1295      F1300   1.383   1_655  S
C1295      F1301   1.382       .  S
C1298      F1302   1.382       .  S
C1298      F1303   1.376       .  S
C1298      F1304   1.371       .  S
C1305      C1306   1.396       .  A
C1305      C1310   1.397       .  A
C1305      H1312   1.085       .  S
C1306      C1307   1.415       .  A
C1307      C1308   1.402       .  A
C1307      C1314   1.519       .  S
C1308      C1309   1.400       .  A
C1308      H1313   1.083       .  S
C1309      C1310   1.418       .  A
C1310      C1311   1.518       .  S
C1311      F1315   1.384       .  S
C1311      F1316   1.381       .  S
C1311      F1317   1.382       .  S
C1314      F1318   1.384       .  S
C1314      F1319   1.381       .  S
C1314      F1320   1.384       .  S
C1321      C1322   1.401       .  A
C1321      C1326   1.404       .  A
C1321      H1328   1.075       .  S
C1322      C1323   1.424       .  A
C1323      C1324   1.410       .  A
C1323      C1330   1.518   1_554  S
C1324      C1325   1.401       .  A
C1324      H1329   1.085       .  S
C1325      C1326   1.415       .  A
C1326      C1327   1.522       .  S
C1327      F1331   1.380       .  S
C1327      F1332   1.383       .  S
C1327      F1333   1.380       .  S
C1330      F1334   1.383       .  S
C1330      F1335   1.378       .  S
C1330      F1336   1.383       .  S
C1337      C1338   1.402       .  A
C1337      C1342   1.400       .  A
C1337      H1344   1.083       .  S
C1338      C1339   1.418       .  A
C1339      C1340   1.405       .  A
C1339      C1346   1.520       .  S
C1340      C1341   1.401       .  A
C1340      H1345   1.083       .  S
C1341      C1342   1.414       .  A
C1342      C1343   1.520       .  S
C1343      F1347   1.385       .  S
C1343      F1348   1.383       .  S
C1343      F1349   1.381       .  S
C1346      F1350   1.383       .  S
C1346      F1351   1.381       .  S
C1346      F1352   1.385       .  S
C1353      C1354   1.403       .  A
C1353      C1358   1.400       .  A
C1353      H1360   1.084       .  S
C1354      C1355   1.420       .  A
C1355      C1356   1.415       .  A
C1355      C1362   1.517       .  S
C1356      C1357   1.404       .  A
C1356      H1361   1.083       .  S
C1357      C1358   1.412       .  A
C1358      C1359   1.511       .  S
C1359      F1363   1.385       .  S
C1359      F1364   1.382       .  S
C1359      F1365   1.383       .  S
C1362      F1366   1.383       .  S
C1362      F1367   1.382       .  S
C1362      F1368   1.384       .  S
C1369      C1370   1.402       .  A
C1369      C1374   1.409       .  A
C1369      H1376   1.083       .  S
C1370      C1371   1.424       .  A
C1371      C1372   1.413       .  A
C1371      C1378   1.518       .  S
C1372      C1373   1.402       .  A
C1372      H1377   1.084       .  S
C1373      C1374   1.423       .  A
C1374      C1375   1.523       .  S
C1375      F1379   1.383       .  S
C1375      F1380   1.383       .  S
C1375      F1381   1.380       .  S
C1378      F1382   1.383       .  S
C1378      F1383   1.379       .  S
C1378      F1384   1.383       .  S
C1385      C1386   1.400       .  A
C1385      C1390   1.406       .  A
C1385      H1392   1.083       .  S
C1386      C1387   1.413       .  A
C1387      C1388   1.408       .  A
C1387      C1394   1.517       .  S
C1388      C1389   1.406       .  A
C1388      H1393   1.082       .  S
C1389      C1390   1.423       .  A
C1390      C1391   1.516       .  S
C1391      F1395   1.385   1_554  S
C1391      F1396   1.381       .  S
C1391      F1397   1.376   1_554  S
C1394      F1398   1.383       .  S
C1394      F1399   1.383       .  S
C1394      F1400   1.384       .  S
C1401      C1402   1.409       .  A
C1401      C1406   1.408       .  A
C1401      H1408   1.083       .  S
C1402      C1403   1.415       .  A
C1403      C1404   1.414       .  A
C1403      C1410   1.518       .  S
C1404      C1405   1.405       .  A
C1404      H1409   1.071       .  S
C1405      C1406   1.414       .  A
C1406      C1407   1.516       .  S
C1407      F1411   1.385       .  S
C1407      F1412   1.383       .  S
C1407      F1413   1.372       .  S
C1410      F1414   1.383       .  S
C1410      F1415   1.377       .  S
C1410      F1416   1.385       .  S
C1417      C1418   1.401       .  A
C1417      C1422   1.406       .  A
C1417      H1424   1.085       .  S
C1418      C1419   1.419       .  A
C1419      C1420   1.410       .  A
C1419      C1426   1.517       .  S
C1420      C1421   1.405       .  A
C1420      H1425   1.085       .  S
C1421      C1422   1.424       .  A
C1422      C1423   1.518       .  S
C1423      F1427   1.384       .  S
C1423      F1428   1.378       .  S
C1423      F1429   1.383   1_655  S
C1426      F1430   1.383       .  S
C1426      F1431   1.382       .  S
C1426      F1432   1.383       .  S
C1433      C1434   1.408       .  A
C1433      C1438   1.414       .  A
C1433      H1440   1.083       .  S
C1434      C1435   1.424       .  A
C1435      C1436   1.413       .  A
C1435      C1442   1.518       .  S
C1436      C1437   1.402       .  A
C1436      H1441   1.083       .  S
C1437      C1438   1.416       .  A
C1438      C1439   1.516       .  S
C1439      F1443   1.383   1_655  S
C1439      F1444   1.383   1_655  S
C1439      F1445   1.383       .  S
C1442      F1446   1.384       .  S
C1442      F1447   1.382       .  S
C1442      F1448   1.385       .  S
C1449      C1450   1.406       .  A
C1449      C1454   1.408       .  A
C1449      H1456   1.075       .  S
C1450      C1451   1.422       .  A
C1451      C1452   1.414       .  A
C1451      C1458   1.517       .  S
C1452      C1453   1.404       .  A
C1452      H1457   1.083       .  S
C1453      C1454   1.413       .  A
C1454      C1455   1.521       .  S
C1455      F1459   1.385   1_655  S
C1455      F1460   1.383   1_655  S
C1455      F1461   1.382       .  S
C1458      F1462   1.383       .  S
C1458      F1463   1.383       .  S
C1458      F1464   1.385       .  S
C1465      C1466   1.411       .  A
C1465      C1470   1.413       .  A
C1465      H1472   1.076       .  S
C1466      C1467   1.427       .  A
C1467      C1468   1.411       .  A
C1467      C1474   1.521       .  S
C1468      C1469   1.403       .  A
C1468      H1473   1.083       .  S
C1469      C1470   1.414       .  A
C1470      C1471   1.519   1_655  S
C1471      F1475   1.384       .  S
C1471      F1476   1.381       .  S
C1471      F1477   1.383       .  S
C1474      F1478   1.384       .  S
C1474      F1479   1.383       .  S
C1474      F1480   1.385       .  S
C1481      C1482   1.399       .  A
C1481      C1486   1.408       .  A
C1481      H1488   1.084       .  S
C1482      C1483   1.414       .  A
C1483      C1484   1.410       .  A
C1483      C1490   1.511       .  S
C1484      C1485   1.404       .  A
C1484      H1489   1.083       .  S
C1485      C1486   1.428       .  A
C1486      C1487   1.527       .  S
C1487      F1491   1.384       .  S
C1487      F1492   1.383       .  S
C1487      F1493   1.379       .  S
C1490      F1494   1.382       .  S
C1490      F1495   1.383       .  S
C1490      F1496   1.385       .  S
C1497      C1498   1.408       .  A
C1497      C1502   1.409       .  A
C1497      H1504   1.084       .  S
C1498      C1499   1.425       .  A
C1499      C1500   1.406       .  A
C1499      C1506   1.502       .  S
C1500      C1501   1.397       .  A
C1500      H1505   1.082       .  S
C1501      C1502   1.421       .  A
C1502      C1503   1.517       .  S
C1503      F1507   1.384       .  S
C1503      F1508   1.383       .  S
C1503      F1509   1.383       .  S
C1506      F1510   1.382       .  S
C1506      F1511   1.375   1_565  S
C1506      F1512   1.384   1_565  S
C1513      C1514   1.405       .  A
C1513      C1518   1.416       .  A
C1513      H1520   1.083       .  S
C1514      C1515   1.413       .  A
C1515      C1516   1.406       .  A
C1515      C1522   1.519       .  S
C1516      C1517   1.407       .  A
C1516      H1521   1.083       .  S
C1517      C1518   1.419       .  A
C1518      C1519   1.517       .  S
C1519      F1523   1.385       .  S
C1519      F1524   1.383       .  S
C1519      F1525   1.382       .  S
C1522      F1526   1.383       .  S
C1522      F1527   1.379       .  S
C1522      F1528   1.384       .  S
C1529      C1530   1.395       .  A
C1529      C1534   1.403       .  A
C1529      H1536   1.080       .  S
C1530      C1531   1.419       .  A
C1531      C1532   1.419       .  A
C1531      C1538   1.515       .  S
C1532      C1533   1.409       .  A
C1532      H1537   1.083       .  S
C1533      C1534   1.428       .  A
C1534      C1535   1.521       .  S
C1535      F1539   1.381       .  S
C1535      F1540   1.380       .  S
C1535      F1541   1.383       .  S
C1538      F1542   1.381       .  S
C1538      F1543   1.383       .  S
C1538      F1544   1.384       .  S
C1545      C1546   1.407       .  A
C1545      C1550   1.406       .  A
C1545      H1552   1.084       .  S
C1546      C1547   1.425       .  A
C1547      C1548   1.408       .  A
C1547      C1554   1.511       .  S
C1548      C1549   1.398       .  A
C1548      H1553   1.083       .  S
C1549      C1550   1.417       .  A
C1550      C1551   1.517       .  S
C1551      F1555   1.384       .  S
C1551      F1556   1.383       .  S
C1551      F1557   1.382       .  S
C1554      F1558   1.378       .  S
C1554      F1559   1.376   1_455  S
C1554      F1560   1.385   1_455  S
C1561      C1562   1.407       .  A
C1561      C1566   1.410       .  A
C1561      H1568   1.082       .  S
C1562      C1563   1.430       .  A
C1563      C1564   1.414       .  A
C1563      C1570   1.503       .  S
C1564      C1565   1.397       .  A
C1564      H1569   1.083       .  S
C1565      C1566   1.422       .  A
C1566      C1567   1.517       .  S
C1567      F1571   1.385       .  S
C1567      F1572   1.381       .  S
C1567      F1573   1.383       .  S
C1570      F1574   1.377       .  S
C1570      F1575   1.374       .  S
C1570      F1576   1.385   1_455  S
C1577      C1578   1.397       .  A
C1577      C1582   1.406       .  A
C1577      H1584   1.085       .  S
C1578      C1579   1.410       .  A
C1579      C1580   1.406       .  A
C1579      C1586   1.503       .  S
C1580      C1581   1.405       .  A
C1580      H1585   1.080       .  S
C1581      C1582   1.434       .  A
C1582      C1583   1.524       .  S
C1583      F1587   1.384       .  S
C1583      F1588   1.382       .  S
C1583      F1589   1.384       .  S
C1586      F1590   1.377       .  S
C1586      F1591   1.383       .  S
C1586      F1592   1.381       .  S
C1593      C1594   1.413       .  A
C1593      C1598   1.412       .  A
C1593      H1600   1.080       .  S
C1594      C1595   1.427       .  A
C1595      C1596   1.405       .  A
C1595      C1602   1.523       .  S
C1596      C1597   1.401       .  A
C1596      H1601   1.082       .  S
C1597      C1598   1.413       .  A
C1598      C1599   1.518       .  S
C1599      F1603   1.381   1_455  S
C1599      F1604   1.379   1_455  S
C1599      F1605   1.383       .  S
C1602      F1606   1.383       .  S
C1602      F1607   1.384       .  S
C1602      F1608   1.385       .  S
