geometry optimzed in LAMMPS
_audit_creation_date              2020-11-30 
_audit_creation_method            'lammps2cif' 
_symmetry_space_group_name_H-M    'P1' 
_symmetry_Int_Tables_number       1 
_symmetry_cell_setting            triclinic 
loop_ 
_symmetry_equiv_pos_as_xyz 
  x,y,z 
_cell_length_a                    32.197897086609515 
_cell_length_b                    32.51738988539966 
_cell_length_c                    22.173525836262797 
_cell_angle_alpha                 90.27916468087922 
_cell_angle_beta                  91.83630036246387 
_cell_angle_gamma                 119.72333779197479 
loop_ 
_atom_site_label 
_atom_site_type_symbol 
_atom_site_fract_x 
_atom_site_fract_y 
_atom_site_fract_z 
_atom_site_charge 
C1          C  0.22473003  0.11969284  0.02869337    -0.02480
C2          C  0.21951170  0.11697206  0.30692744    -0.02480
C3          C  0.10555384  0.22313031  0.80668320    -0.02480
C4          C  0.11252072  0.22848088  0.52854946    -0.02480
C5          C  0.03403807  0.06573398  0.09526686     0.42460
N6          N  0.31572849  0.33390355  0.05126136     0.01350
C7          C  0.08550225  0.29384259  0.80935801    -0.06520
H8          H  0.17664321  0.13096366  0.90829908     0.06850
C9          C  0.02769754  0.14394794  0.83988493    -0.06870
Co10       Co  0.04067276  0.30499987  0.97827526     0.74180
N11         N  0.11457265  0.06408431  0.92780486    -0.26050
Co12       Co  0.06636018  0.03955182  0.85287053     0.74070
C13         C  0.07907466  0.17302331  0.83065700     0.42570
N14         N  0.27136768  0.06015002  0.93620410     0.00970
N15         N  0.06212077  0.10155853  0.84954182     0.01070
N16         N  0.06618809  0.24628016  0.88915132    -0.46900
H17         H  0.09321997  0.04867903  0.09039247     0.06830
N18         N  0.10532665  0.03529064  0.97330540     0.01360
N19         N  0.01428003  0.00834387  0.78456986     0.01100
C20         C  0.29581420  0.27601310  0.74166285     0.42700
N21         N  0.25947210  0.03165380  0.98217547    -0.25510
C22         C  0.30248357  0.19863862  0.99521647    -0.06430
N23         N  0.32136437  0.03966992  0.07744814    -0.46610
N24         N  0.00856494  0.96902081  0.75895350    -0.46840
C25         C  0.25108572  0.16955741  0.00417843     0.42480
N26         N  0.05894723  0.28251200  0.89950332     0.01350
N27         N  0.21554768  0.27854649  0.90793054    -0.25530
N28         N  0.02308988  0.33305210  0.05141270    -0.26020
N29         N  0.22480686  0.30742225  0.86254608     0.00990
H30         H  0.15345064  0.21158449  0.92722747     0.06880
H31         H  0.23665646  0.29306923  0.74597781     0.06910
N32         N  0.07079758  0.31101509  0.85356770    -0.26070
N33         N  0.02067559  0.10054276  0.85109788    -0.25680
N34         N  0.26807354  0.24105187  0.98571543     0.01350
C35         C  0.17460146  0.09448447  0.99881411     0.42750
C36         C  0.24464205  0.04881252  0.02627821    -0.06940
N37         N  0.30689241  0.00915330  0.78440047    -0.25680
H38         H  0.99978637  0.15312458  0.83464940     0.06900
N39         N  0.14086792  0.05100138  0.01428496    -0.46910
H40         H  0.23368883  0.03206232  0.06903678     0.06880
C41         C  0.15555420  0.24828166  0.83688261     0.42580
C42         C  0.05598839  0.03721175  0.08430908    -0.06430
Co43       Co  0.26379807  0.30301322  0.98277684     0.73820
N44         N  0.26406244  0.09634900  0.94642655    -0.46620
C45         C  0.08114328  0.24970044  0.83140421     0.42850
N46         N  0.23240951  0.19861690  0.99850752    -0.46610
Co47       Co  0.28950518  0.03756819  0.85739971     0.73890
C48         C  0.27388210  0.97129448  0.75208452    -0.06940
C49         C  0.15796314  0.10243539  0.93914547    -0.06500
N50         N  0.30952216  0.24206333  0.98421857    -0.26030
N51         N  0.09775504  0.14396570  0.83648223    -0.46790
H52         H  0.09623624  0.31054056  0.76653612     0.06860
C53         C  0.17214607  0.24019894  0.89649863    -0.06920
Cl54       Cl  0.33176381  0.00464366  0.91785367    -0.49920
C55         C  0.24900925  0.09294519  0.00410972     0.42610
H56         H  0.33038530  0.18945326  0.00053978     0.06820
N57         N  0.18927340  0.29181463  0.82160173    -0.46630
C58         C  0.24541651  0.09298009  0.33600363     0.42460
N59         N  0.25582013  0.03463281  0.36165948     0.01350
C60         C  0.02948846  0.98326532  0.58695101    -0.06520
H61         H  0.14839700  0.15836701  0.49953249     0.06850
C62         C  0.12847971  0.04603132  0.30898801    -0.06870
Co63       Co  0.30122002  0.04392262  0.48248500     0.74180
N64         N  0.07463192  0.10497014  0.48308067    -0.26050
Co65       Co  0.07592277  0.04180693  0.47817985     0.74070
C66         C  0.16891126  0.09076981  0.33138293     0.42570
N67         N  0.00826281  0.32918691  0.28399828     0.00970
N68         N  0.11497755  0.06055193  0.39924964     0.01070
N69         N  0.29169048  0.97947710  0.57985903    -0.46900
H70         H  0.28130302  0.13261930  0.42672771     0.06830
N71         N  0.03416447  0.10591714  0.48453094     0.01360
N72         N  0.07624200  0.31095603  0.47416790     0.01100
C73         C  0.08659721  0.25255020  0.49969729     0.42700
N74         N  0.29986913  0.32792656  0.28375498    -0.25510
C75         C  0.20356783  0.29969710  0.52665217    -0.06430
N76         N  0.23552461  0.04898371  0.32049321    -0.46610
N77         N  0.09644648  0.29651422  0.51537296    -0.46840
C78         C  0.16319578  0.25487829  0.50425346     0.42480
N79         N  0.32406272  0.01680988  0.55178885     0.01350
N80         N  0.25755813  0.24068019  0.35233447    -0.25530
N81         N  0.27602588  0.06506084  0.40723591    -0.26020
N82         N  0.29802066  0.23973538  0.35077660     0.00990
H83         H  0.18378808  0.18731198  0.33582569     0.06880
H84         H  0.05083733  0.21309592  0.40882273     0.06910
N85         N  0.03242417  0.01801373  0.55198152    -0.26070
N86         N  0.09732632  0.03043867  0.35319286    -0.25680
N87         N  0.21727432  0.28506702  0.43652967     0.01350
C88         C  0.08894442  0.17825936  0.50209175     0.42750
C89         C  0.30296479  0.02963927  0.24922298    -0.06940
N90         N  0.05609518  0.28060258  0.42848448    -0.25680
H91         H  0.12163446  0.02814257  0.26592408     0.06900
N92         N  0.04110626  0.14878125  0.49703426    -0.46910
H93         H  0.27666133  0.04031085  0.24302247     0.06880
C94         C  0.24322139  0.16740976  0.33286878     0.42580
C95         C  0.27090121  0.10299252  0.39581239    -0.06430
Co96       Co  0.25627829  0.30387513  0.35752304     0.73820
N97         N  0.04075025  0.03347712  0.25647885    -0.46620
C98         C  0.31279725  0.28859658  0.59942474     0.42850
N99         N  0.17388489  0.24933949  0.44666499    -0.46610
Co100      Co  0.03097389  0.30180554  0.35315947     0.73890
C101        C  0.06119251  0.24265696  0.43983518    -0.06940
C102        C  0.11118416  0.14887999  0.49382459    -0.06500
N103        N  0.23484835  0.31523129  0.48256105    -0.26030
N104        N  0.15835886  0.09628165  0.38905378    -0.46790
H105        H  0.05582006  0.30594185  0.59312228     0.06860
C106        C  0.22099979  0.19678372  0.34142171    -0.06920
Cl107      Cl  0.33275454  0.00616403  0.41785299    -0.49920
C108        C  0.01973269  0.05784790  0.23724665     0.42610
H109        H  0.21023727  0.31769547  0.56961154     0.06820
N110        N  0.29106893  0.19688781  0.33800887    -0.46630
C111        C  0.97991809  0.22029733  0.64189867    -0.21300
C112        C  0.28647104  0.23723667  0.61014406    -0.09340
C113        C  0.23890818  0.88582710  0.62780042     0.29510
C114        C  0.23075554  0.87736541  0.68921517    -0.21300
C115        C  0.27187889  0.22467489  0.72610069    -0.09360
C116        C  0.97054833  0.21151321  0.70305936     0.29520
F117        F  0.00234569  0.20733878  0.74016005    -0.19880
H118        H  0.01339532  0.22524633  0.62551332     0.17890
H119        H  0.19879834  0.87499953  0.70736463     0.17890
F120        F  0.20628684  0.88979146  0.59230406    -0.19870
C121        C  0.09997293  0.13195749  0.14576191    -0.21300
C122        C  0.05823488  0.11719622  0.10974763    -0.09340
C123        C  0.36005092  0.13126746  0.13217324     0.29510
C124        C  0.35246009  0.12557866  0.19404988    -0.21300
C125        C  0.04610491  0.10926056  0.22651751    -0.09360
C126        C  0.09325715  0.12663995  0.20781085     0.29520
F127        F  0.12661348  0.12436473  0.24388300    -0.19880
H128        H  0.13133650  0.13306914  0.12752023     0.17890
H129        H  0.31961080  0.12179033  0.21110386     0.17890
F130        F  0.32727629  0.13379990  0.09509305    -0.19870
C131        C  0.08973349  0.18427064  0.63261235    -0.21300
C132        C  0.11085661  0.22750681  0.60086878    -0.09340
C133        C  0.12971561  0.26874807  0.63887496     0.29510
C134        C  0.13073715  0.26648762  0.70273070    -0.21300
C135        C  0.10760829  0.22346880  0.73438228    -0.09360
C136        C  0.08695141  0.18199523  0.69632439     0.29520
F137        F  0.06375367  0.13799040  0.71914456    -0.19880
H138        H  0.07398258  0.15064354  0.60861794     0.17890
H139        H  0.14982045  0.29983101  0.72715040     0.17890
F140        F  0.14622987  0.31229126  0.61573790    -0.19870
C141        C  0.20028388  0.07733999  0.13324018    -0.21300
C142        C  0.22316931  0.12004484  0.10100055    -0.09340
C143        C  0.24409994  0.16186460  0.13850006     0.29430
C144        C  0.24174755  0.16017589  0.20226011    -0.21300
C145        C  0.22083056  0.11725521  0.23458839    -0.09360
C146        C  0.20176308  0.07566568  0.19712934     0.29520
F147        F  0.18541961  0.03231597  0.22080407    -0.19880
H148        H  0.18102511  0.04381564  0.10924796     0.17890
H149        H  0.25764839  0.19399005  0.22583861     0.17890
F150        F  0.26715708  0.20567139  0.11511473    -0.19870
C151        C  0.22473032  0.45302609  0.02869348    -0.02480
C152        C  0.21951234  0.45030547  0.30692759    -0.02480
C153        C  0.10555399  0.55646372  0.80668389    -0.02480
C154        C  0.11252086  0.56181416  0.52855016    -0.02480
C155        C  0.03403824  0.39906670  0.09526707     0.42460
N156        N  0.31572864  0.66723692  0.05126207     0.01350
C157        C  0.08550233  0.62717596  0.80935858    -0.06520
H158        H  0.17664344  0.46429698  0.90829939     0.06850
C159        C  0.02769774  0.47728128  0.83988528    -0.06870
Co160      Co  0.04067289  0.63833329  0.97827583     0.74180
N161        N  0.11457289  0.39741760  0.92780503    -0.26050
Co162      Co  0.06636057  0.37288527  0.85287053     0.74070
C163        C  0.07907488  0.50635675  0.83065768     0.42570
N164        N  0.27136783  0.39348327  0.93620390     0.00970
N165        N  0.06212105  0.43489193  0.84954208     0.01070
N166        N  0.06618820  0.57961358  0.88915193    -0.46900
H167        H  0.09321987  0.38201129  0.09039284     0.06830
N168        N  0.10532686  0.36862386  0.97330549     0.01360
N169        N  0.01428058  0.34167751  0.78456961     0.01100
C170        C  0.29581420  0.60934634  0.74166362     0.42700
N171        N  0.25947230  0.36498704  0.98217525    -0.25510
C172        C  0.30248377  0.53197199  0.99521670    -0.06430
N173        N  0.32136459  0.37300294  0.07744801    -0.46610
N174        N  0.00856577  0.30235468  0.75895287    -0.46840
C175        C  0.25108592  0.50289069  0.00417857     0.42480
N176        N  0.05894734  0.61584543  0.89950391     0.01350
N177        N  0.21554777  0.61187989  0.90793132    -0.25530
N178        N  0.02309003  0.66638549  0.05141334    -0.26020
N179        N  0.22480692  0.64075567  0.86254688     0.00990
H180        H  0.15345076  0.54491786  0.92722819     0.06880
H181        H  0.23665639  0.62640235  0.74597867     0.06910
N182        N  0.07079767  0.64434850  0.85356827    -0.26070
N183        N  0.02067583  0.43387607  0.85109799    -0.25680
N184        N  0.26807369  0.57438523  0.98571606     0.01350
C185        C  0.17460167  0.42781772  0.99881434     0.42750
C186        C  0.24464232  0.38214577  0.02627808    -0.06940
N187        N  0.30689285  0.34248669  0.78440028    -0.25680
H188        H  0.99978654  0.48645788  0.83464976     0.06900
N189        N  0.14086812  0.38433459  0.01428511    -0.46910
H190        H  0.23368913  0.36539554  0.06903664     0.06880
C191        C  0.15555430  0.58161510  0.83688338     0.42580
C192        C  0.05598835  0.37054427  0.08430928    -0.06430
Co193      Co  0.26379820  0.63634662  0.98277758     0.73820
N194        N  0.26406266  0.42968228  0.94642645    -0.46620
C195        C  0.08114337  0.58303382  0.83140482     0.42850
N196        N  0.23240968  0.53195019  0.99850794    -0.46610
Co197      Co  0.28950544  0.37090149  0.85739950     0.73890
C198        C  0.27388269  0.30462790  0.75208411    -0.06940
C199        C  0.15796336  0.43576868  0.93914573    -0.06500
N200        N  0.30952233  0.57539672  0.98421910    -0.26030
N201        N  0.09775533  0.47729918  0.83648281    -0.46790
H202        H  0.09623628  0.64387390  0.76653667     0.06860
C203        C  0.17214617  0.57353234  0.89649939    -0.06920
Cl204      Cl  0.33176404  0.33797693  0.91785346    -0.49920
C205        C  0.24900953  0.42627846  0.00410967     0.42610
H206        H  0.33038551  0.52278663  0.00053983     0.06820
N207        N  0.18927347  0.62514807  0.82160254    -0.46630
C208        C  0.24541715  0.42631357  0.33600394     0.42460
N209        N  0.25582079  0.36796631  0.36165969     0.01350
C210        C  0.02948964  0.31659870  0.58695081    -0.06520
H211        H  0.14839748  0.49170055  0.49953283     0.06850
C212        C  0.12848037  0.37936467  0.30898792    -0.06870
Co213      Co  0.30122059  0.37725575  0.48248518     0.74180
N214        N  0.07463247  0.43830353  0.48308083    -0.26050
Co215      Co  0.07592344  0.37514034  0.47817965     0.74070
C216        C  0.16891188  0.42410317  0.33138290     0.42570
N217        N  0.00826296  0.66252023  0.28399902     0.00970
N218        N  0.11497807  0.39388536  0.39924943     0.01070
N219        N  0.29169134  0.31280979  0.57985863    -0.46900
H220        H  0.28130350  0.46595265  0.42672818     0.06830
N221        N  0.03416495  0.43925037  0.48453130     0.01360
N222        N  0.07624202  0.64428932  0.47416877     0.01100
C223        C  0.08659725  0.58588345  0.49969810     0.42700
N224        N  0.29986926  0.66125983  0.28375563    -0.25510
C225        C  0.20356790  0.63303044  0.52665273    -0.06430
N226        N  0.23552532  0.38231725  0.32049343    -0.46610
N227        N  0.09644647  0.62984747  0.51537384    -0.46840
C228        C  0.16319587  0.58821162  0.50425407     0.42480
N229        N  0.32406344  0.35014284  0.55178875     0.01350
N230        N  0.25755830  0.57401345  0.35233502    -0.25530
N231        N  0.27602642  0.39839421  0.40723627    -0.26020
N232        N  0.29802089  0.57306873  0.35077729     0.00990
H233        H  0.18378836  0.52064518  0.33582566     0.06880
H234        H  0.05083746  0.54642926  0.40882350     0.06910
N235        N  0.03242506  0.35134705  0.55198145    -0.26070
N236        N  0.09732690  0.36377206  0.35319267    -0.25680
N237        N  0.21727438  0.61840028  0.43653025     0.01350
C238        C  0.08894469  0.51159263  0.50209243     0.42750
C239        C  0.30296597  0.36297351  0.24922326    -0.06940
N240        N  0.05609525  0.61393589  0.42848532    -0.25680
H241        H  0.12163519  0.36147590  0.26592401     0.06900
N242        N  0.04110657  0.48211439  0.49703489    -0.46910
H243        H  0.27666274  0.37364539  0.24302290     0.06880
C244        C  0.24322182  0.50074314  0.33286895     0.42580
C245        C  0.27090173  0.43632589  0.39581282    -0.06430
Co246      Co  0.25627837  0.63720838  0.35752361     0.73820
N247        N  0.04075113  0.36681075  0.25647878    -0.46620
C248        C  0.31279732  0.62193004  0.59942551     0.42850
N249        N  0.17388496  0.58267276  0.44666561    -0.46610
Co250      Co  0.03097400  0.63513884  0.35316027     0.73890
C251        C  0.06119259  0.57599026  0.43983598    -0.06940
C252        C  0.11118460  0.48221341  0.49382498    -0.06500
N253        N  0.23484840  0.64856458  0.48256160    -0.26030
N254        N  0.15835940  0.42961504  0.38905367    -0.46790
H255        H  0.05582018  0.63927543  0.59312313     0.06860
C256        C  0.22100007  0.53011698  0.34142193    -0.06920
Cl257      Cl  0.33275515  0.33949741  0.41785286    -0.49920
C258        C  0.01973389  0.39118190  0.23724691     0.42610
H259        H  0.21023735  0.65102886  0.56961207     0.06820
N260        N  0.29106931  0.53022125  0.33800938    -0.46630
C261        C  0.97991826  0.55363080  0.64189936    -0.21300
C262        C  0.28647117  0.57057013  0.61014479    -0.09340
C263        C  0.23890956  0.21915970  0.62779907     0.29510
C264        C  0.23075681  0.21069890  0.68921395    -0.21300
C265        C  0.27187896  0.55800815  0.72610139    -0.09360
C266        C  0.97054846  0.54484656  0.70306001     0.29520
F267        F  0.00234584  0.54067215  0.74016069    -0.19880
H268        H  0.01339553  0.55857989  0.62551402     0.17890
H269        H  0.19879951  0.20833314  0.70736287     0.17890
F270        F  0.20628809  0.22312312  0.59230176    -0.19870
C271        C  0.09997367  0.46529027  0.14576132    -0.21300
C272        C  0.05823538  0.45052898  0.10974754    -0.09340
C273        C  0.36005177  0.46460065  0.13217326     0.29510
C274        C  0.35246168  0.45891277  0.19405013    -0.21300
C275        C  0.04610644  0.44259456  0.22651767    -0.09360
C276        C  0.09325845  0.45997345  0.20781042     0.29520
F277        F  0.12661495  0.45769835  0.24388235    -0.19880
H278        H  0.13133694  0.46640146  0.12751937     0.17890
H279        H  0.31961272  0.45512497  0.21110452     0.17890
F280        F  0.32727676  0.46713269  0.09509336    -0.19870
C281        C  0.08973382  0.51760397  0.63261307    -0.21300
C282        C  0.11085684  0.56084013  0.60086948    -0.09340
C283        C  0.12971579  0.60208140  0.63887564     0.29510
C284        C  0.13073732  0.59982098  0.70273138    -0.21300
C285        C  0.10760850  0.55680218  0.73438298    -0.09360
C286        C  0.08695174  0.51532858  0.69632511     0.29520
F287        F  0.06375412  0.47132376  0.71914529    -0.19880
H288        H  0.07398299  0.48397687  0.60861867     0.17890
H289        H  0.14982057  0.63316438  0.72715107     0.17890
F290        F  0.14623000  0.64562458  0.61573857    -0.19870
C291        C  0.20028444  0.41067332  0.13324035    -0.21300
C292        C  0.22316981  0.45337814  0.10100068    -0.09340
C293        C  0.24410066  0.49519792  0.13850020     0.29430
C294        C  0.24174837  0.49350925  0.20226025    -0.21300
C295        C  0.22083132  0.45058859  0.23458854    -0.09360
C296        C  0.20176379  0.40899904  0.19712951     0.29520
F297        F  0.18542044  0.36564935  0.22080425    -0.19880
H298        H  0.18102557  0.37714897  0.10924815     0.17890
H299        H  0.25764933  0.52732342  0.22583876     0.17890
F300        F  0.26715795  0.53900470  0.11511487    -0.19870
C301        C  0.22473036  0.78635956  0.02869406    -0.02480
C302        C  0.21951221  0.78363868  0.30692817    -0.02480
C303        C  0.10555360  0.88979696  0.80668367    -0.02480
C304        C  0.11252027  0.89514760  0.52854991    -0.02480
C305        C  0.03403836  0.73240002  0.09526790     0.42460
N306        N  0.31572841  0.00057053  0.05126164     0.01350
C307        C  0.08550165  0.96050897  0.80935819    -0.06520
H308        H  0.17664350  0.79763041  0.90829989     0.06850
C309        C  0.02769755  0.81061451  0.83988544    -0.06870
Co310      Co  0.04067264  0.97166675  0.97827552     0.74180
N311        N  0.11457295  0.73075104  0.92780555    -0.26050
Co312      Co  0.06636061  0.70621867  0.85287106     0.74070
C313        C  0.07907462  0.83968999  0.83065749     0.42570
N314        N  0.27136794  0.72681669  0.93620461     0.00970
N315        N  0.06212103  0.76822531  0.84954245     0.01070
N316        N  0.06618781  0.91294681  0.88915174    -0.46900
H317        H  0.09322003  0.71534467  0.09039349     0.06830
N318        N  0.10532694  0.70195730  0.97330602     0.01360
N319        N  0.01428057  0.67501082  0.78457023     0.01100
C320        C  0.29581332  0.94267935  0.74166368     0.42700
N321        N  0.25947245  0.69832051  0.98217601    -0.25510
C322        C  0.30248370  0.86530552  0.99521711    -0.06430
N323        N  0.32136470  0.70633627  0.07744883    -0.46610
N324        N  0.00856578  0.63568800  0.75895352    -0.46840
C325        C  0.25108589  0.83622419  0.00417916     0.42480
N326        N  0.05894694  0.94917866  0.89950365     0.01350
N327        N  0.21554749  0.94521320  0.90793097    -0.25530
N328        N  0.02308991  0.99971930  0.05141284    -0.26020
N329        N  0.22480659  0.97408899  0.86254653     0.00990
H330        H  0.15345046  0.87825122  0.92722796     0.06880
H331        H  0.23665590  0.95973602  0.74597816     0.06910
N332        N  0.07079714  0.97768161  0.85356789    -0.26070
N333        N  0.02067579  0.76720940  0.85109846    -0.25680
N334        N  0.26807347  0.90771861  0.98571607     0.01350
C335        C  0.17460175  0.76115114  0.99881484     0.42750
C336        C  0.24464252  0.71547930  0.02627883    -0.06940
N337        N  0.30689280  0.67581994  0.78440098    -0.25680
H338        H  0.99978628  0.81979100  0.83464984     0.06900
N339        N  0.14086820  0.71766802  0.01428563    -0.46910
H340        H  0.23368938  0.69872912  0.06903743     0.06880
C341        C  0.15555391  0.91494844  0.83688317     0.42580
C342        C  0.05598849  0.70387764  0.08430997    -0.06430
Co343      Co  0.26379792  0.96967999  0.98277723     0.73820
N344        N  0.26406274  0.76301571  0.94642711    -0.46620
C345        C  0.08114283  0.91636693  0.83140456     0.42850
N346        N  0.23240955  0.86528360  0.99850828    -0.46610
Co347      Co  0.28950547  0.70423484  0.85740019     0.73890
C348        C  0.27388263  0.63796109  0.75208491    -0.06940
C349        C  0.15796343  0.76910211  0.93914624    -0.06500
N350        N  0.30952214  0.90873018  0.98421916    -0.26030
N351        N  0.09775519  0.81063253  0.83648277    -0.46790
H352        H  0.09623546  0.97720680  0.76653620     0.06860
C353        C  0.17214586  0.90686567  0.89649912    -0.06920
Cl354      Cl  0.33176413  0.67131034  0.91785410    -0.49920
C355        C  0.24900966  0.75961196  0.00411034     0.42610
H356        H  0.33038551  0.85612027  0.00054036     0.06820
N357        N  0.18927307  0.95848140  0.82160228    -0.46630
C358        C  0.24541714  0.75964684  0.33600442     0.42460
N359        N  0.25582078  0.70129955  0.36166019     0.01350
C360        C  0.02948971  0.64993222  0.58695162    -0.06520
H361        H  0.14839735  0.82503423  0.49953313     0.06850
C362        C  0.12848038  0.71269780  0.30898874    -0.06870
Co363      Co  0.30122056  0.71058904  0.48248570     0.74180
N364        N  0.07463240  0.77163693  0.48308137    -0.26050
Co365      Co  0.07592346  0.70847371  0.47818040     0.74070
C366        C  0.16891184  0.75743633  0.33138361     0.42570
N367        N  0.00826210  0.99585328  0.28399851     0.00970
N368        N  0.11497809  0.72721864  0.39925019     0.01070
N369        N  0.29169136  0.64614317  0.57985929    -0.46900
H370        H  0.28130343  0.79928589  0.42672867     0.06830
N371        N  0.03416482  0.77258366  0.48453166     0.01360
N372        N  0.07624129  0.97762258  0.47416839     0.01100
C373        C  0.08659647  0.91921670  0.49969788     0.42700
N374        N  0.29986828  0.99459263  0.28375505    -0.25510
C375        C  0.20356716  0.96636429  0.52665210    -0.06430
N376        N  0.23552533  0.71565051  0.32049391    -0.46610
N377        N  0.09644562  0.96318070  0.51537359    -0.46840
C378        C  0.16319525  0.92154527  0.50425372     0.42480
N379        N  0.32406344  0.68347623  0.55178939     0.01350
N380        N  0.25755771  0.90734663  0.35233498    -0.25530
N381        N  0.27602637  0.73172745  0.40723677    -0.26020
N382        N  0.29802036  0.90640203  0.35077722     0.00990
H383        H  0.18378781  0.85397808  0.33582609     0.06880
H384        H  0.05083688  0.87976255  0.40882319     0.06910
N385        N  0.03242509  0.68468051  0.55198218    -0.26070
N386        N  0.09732694  0.69710529  0.35319350    -0.25680
N387        N  0.21727377  0.95173372  0.43652990     0.01350
C388        C  0.08894435  0.84492606  0.50209224     0.42750
C389        C  0.30296613  0.69630681  0.24922394    -0.06940
N390        N  0.05609467  0.94726920  0.42848488    -0.25680
H391        H  0.12163519  0.69480895  0.26592489     0.06900
N392        N  0.04110627  0.81544768  0.49703478    -0.46910
H393        H  0.27666290  0.70697867  0.24302355     0.06880
C394        C  0.24322150  0.83407631  0.33286953     0.42580
C395        C  0.27090168  0.76965914  0.39581331    -0.06430
Co396      Co  0.25627764  0.97054153  0.35752321     0.73820
N397        N  0.04075131  0.70014411  0.25647962    -0.46620
C398        C  0.31279607  0.95526364  0.59942524     0.42850
N399        N  0.17388439  0.91600618  0.44666538    -0.46610
Co400      Co  0.03097338  0.96847215  0.35315983     0.73890
C401        C  0.06119198  0.90932357  0.43983564    -0.06940
C402        C  0.11118443  0.81554693  0.49382525    -0.06500
N403        N  0.23484773  0.98189824  0.48256103    -0.26030
N404        N  0.15835940  0.76294831  0.38905436    -0.46790
H405        H  0.05581863  0.97260818  0.59312247     0.06860
C406        C  0.22099958  0.86345005  0.34142225    -0.06920
Cl407      Cl  0.33275519  0.67283070  0.41785353    -0.49920
C408        C  0.01973407  0.72451525  0.23724773     0.42610
H409        H  0.21023655  0.98436291  0.56961128     0.06820
N410        N  0.29106895  0.86355456  0.33800970    -0.46630
C411        C  0.97991649  0.88696400  0.64189877    -0.21300
C412        C  0.28646952  0.90390380  0.61014491    -0.09340
C413        C  0.23890967  0.55249306  0.62779978     0.29510
C414        C  0.23075689  0.54403214  0.68921463    -0.21300
C415        C  0.27187775  0.89134112  0.72610150    -0.09360
C416        C  0.97054693  0.87817940  0.70305943     0.29520
F417        F  0.00234443  0.87400470  0.74015957    -0.19880
H418        H  0.01339359  0.89191295  0.62551301     0.17890
H419        H  0.19879954  0.54166629  0.70736356     0.17890
F420        F  0.20628819  0.55645648  0.59230249    -0.19870
C421        C  0.09997379  0.79862358  0.14576221    -0.21300
C422        C  0.05823547  0.78386228  0.10974846    -0.09340
C423        C  0.36005187  0.79793394  0.13217420     0.29510
C424        C  0.35246185  0.79224614  0.19405109    -0.21300
C425        C  0.04610662  0.77592792  0.22651860    -0.09360
C426        C  0.09325861  0.79330682  0.20781132     0.29520
F427        F  0.12661511  0.79103171  0.24388322    -0.19880
H428        H  0.13133704  0.79973472  0.12752024     0.17890
H429        H  0.31961292  0.78845837  0.21110553     0.17890
F430        F  0.32727682  0.80046596  0.09509434    -0.19870
C431        C  0.08973327  0.85093733  0.63261282    -0.21300
C432        C  0.11085625  0.89417352  0.60086925    -0.09340
C433        C  0.12971516  0.93541475  0.63887545     0.29510
C434        C  0.13073682  0.93315429  0.70273118    -0.21300
C435        C  0.10760807  0.89013546  0.73438276    -0.09360
C436        C  0.08695126  0.84866190  0.69632487     0.29520
F437        F  0.06375365  0.80465707  0.71914505    -0.19880
H438        H  0.07398242  0.81731024  0.60861841     0.17890
H439        H  0.14982008  0.96649768  0.72715090     0.17890
F440        F  0.14622916  0.97895792  0.61573844    -0.19870
C441        C  0.20028438  0.74400668  0.13324087    -0.21300
C442        C  0.22316974  0.78671153  0.10100125    -0.09340
C443        C  0.24410045  0.82853128  0.13850081     0.29430
C444        C  0.24174812  0.82684255  0.20226085    -0.21300
C445        C  0.22083114  0.78392186  0.23458911    -0.09360
C446        C  0.20176369  0.74233235  0.19713003     0.29520
F447        F  0.18542039  0.69898265  0.22080472    -0.19880
H448        H  0.18102559  0.71048234  0.10924863     0.17890
H449        H  0.25764899  0.86065670  0.22583938     0.17890
F450        F  0.26715763  0.87233808  0.11511550    -0.19870
C451        C  0.55806337  0.11969284  0.02869337    -0.02480
C452        C  0.55284503  0.11697206  0.30692744    -0.02480
C453        C  0.43888717  0.22313031  0.80668320    -0.02480
C454        C  0.44585405  0.22848088  0.52854946    -0.02480
C455        C  0.36737140  0.06573398  0.09526686     0.42460
N456        N  0.64906183  0.33390355  0.05126136     0.01350
C457        C  0.41883559  0.29384259  0.80935801    -0.06520
H458        H  0.50997654  0.13096366  0.90829908     0.06850
C459        C  0.36103087  0.14394794  0.83988493    -0.06870
Co460      Co  0.37400609  0.30499987  0.97827526     0.74180
N461        N  0.44790598  0.06408431  0.92780486    -0.26050
Co462      Co  0.39969352  0.03955182  0.85287053     0.74070
C463        C  0.41240799  0.17302331  0.83065700     0.42570
N464        N  0.60470101  0.06015002  0.93620410     0.00970
N465        N  0.39545410  0.10155853  0.84954182     0.01070
N466        N  0.39952142  0.24628016  0.88915132    -0.46900
H467        H  0.42655330  0.04867903  0.09039247     0.06830
N468        N  0.43865998  0.03529064  0.97330540     0.01360
N469        N  0.34761336  0.00834387  0.78456985     0.01100
C470        C  0.62914753  0.27601310  0.74166285     0.42700
N471        N  0.59280543  0.03165380  0.98217547    -0.25510
C472        C  0.63581690  0.19863862  0.99521647    -0.06430
N473        N  0.65469771  0.03966992  0.07744814    -0.46610
N474        N  0.34189827  0.96902081  0.75895350    -0.46840
C475        C  0.58441905  0.16955741  0.00417843     0.42480
N476        N  0.39228056  0.28251200  0.89950332     0.01350
N477        N  0.54888101  0.27854649  0.90793054    -0.25530
N478        N  0.35642321  0.33305210  0.05141270    -0.26020
N479        N  0.55814019  0.30742225  0.86254608     0.00990
H480        H  0.48678397  0.21158449  0.92722747     0.06880
H481        H  0.56998979  0.29306923  0.74597781     0.06910
N482        N  0.40413091  0.31101509  0.85356770    -0.26070
N483        N  0.35400892  0.10054276  0.85109788    -0.25680
N484        N  0.60140687  0.24105187  0.98571543     0.01350
C485        C  0.50793479  0.09448447  0.99881411     0.42750
C486        C  0.57797538  0.04881252  0.02627821    -0.06940
N487        N  0.64022575  0.00915330  0.78440047    -0.25680
H488        H  0.33311970  0.15312458  0.83464940     0.06900
N489        N  0.47420126  0.05100138  0.01428496    -0.46910
H490        H  0.56702217  0.03206232  0.06903678     0.06880
C491        C  0.48888753  0.24828166  0.83688261     0.42580
C492        C  0.38932173  0.03721175  0.08430908    -0.06430
Co493      Co  0.59713140  0.30301322  0.98277684     0.73820
N494        N  0.59739578  0.09634900  0.94642655    -0.46620
C495        C  0.41447661  0.24970044  0.83140421     0.42850
N496        N  0.56574284  0.19861690  0.99850752    -0.46610
Co497      Co  0.62283851  0.03756819  0.85739971     0.73890
C498        C  0.60721544  0.97129448  0.75208452    -0.06940
C499        C  0.49129647  0.10243539  0.93914547    -0.06500
N500        N  0.64285549  0.24206333  0.98421857    -0.26030
N501        N  0.43108838  0.14396570  0.83648223    -0.46790
H502        H  0.42956957  0.31054056  0.76653612     0.06860
C503        C  0.50547940  0.24019894  0.89649863    -0.06920
Cl504      Cl  0.66509714  0.00464366  0.91785367    -0.49920
C505        C  0.58234258  0.09294519  0.00410972     0.42610
H506        H  0.66371863  0.18945326  0.00053978     0.06820
N507        N  0.52260673  0.29181463  0.82160173    -0.46630
C508        C  0.57874984  0.09298009  0.33600363     0.42460
N509        N  0.58915347  0.03463281  0.36165948     0.01350
C510        C  0.36282180  0.98326532  0.58695101    -0.06520
H511        H  0.48173034  0.15836701  0.49953249     0.06850
C512        C  0.46181305  0.04603132  0.30898801    -0.06870
Co513      Co  0.63455335  0.04392262  0.48248500     0.74180
N514        N  0.40796525  0.10497014  0.48308067    -0.26050
Co515      Co  0.40925611  0.04180693  0.47817985     0.74070
C516        C  0.50224460  0.09076981  0.33138293     0.42570
N517        N  0.34159614  0.32918692  0.28399828     0.00970
N518        N  0.44831089  0.06055193  0.39924964     0.01070
N519        N  0.62502381  0.97947710  0.57985903    -0.46900
H520        H  0.61463635  0.13261930  0.42672771     0.06830
N521        N  0.36749781  0.10591714  0.48453094     0.01360
N522        N  0.40957534  0.31095603  0.47416790     0.01100
C523        C  0.41993054  0.25255020  0.49969729     0.42700
N524        N  0.63320246  0.32792656  0.28375498    -0.25510
C525        C  0.53690117  0.29969710  0.52665217    -0.06430
N526        N  0.56885794  0.04898371  0.32049321    -0.46610
N527        N  0.42977982  0.29651422  0.51537296    -0.46840
C528        C  0.49652912  0.25487829  0.50425346     0.42480
N529        N  0.65739605  0.01680988  0.55178885     0.01350
N530        N  0.59089146  0.24068019  0.35233447    -0.25530
N531        N  0.60935922  0.06506084  0.40723591    -0.26020
N532        N  0.63135400  0.23973539  0.35077660     0.00990
H533        H  0.51712141  0.18731198  0.33582569     0.06880
H534        H  0.38417066  0.21309592  0.40882273     0.06910
N535        N  0.36575751  0.01801373  0.55198152    -0.26070
N536        N  0.43065966  0.03043867  0.35319286    -0.25680
N537        N  0.55060765  0.28506702  0.43652967     0.01350
C538        C  0.42227775  0.17825936  0.50209175     0.42750
C539        C  0.63629813  0.02963927  0.24922298    -0.06940
N540        N  0.38942851  0.28060258  0.42848448    -0.25680
H541        H  0.45496780  0.02814257  0.26592408     0.06900
N542        N  0.37443959  0.14878125  0.49703426    -0.46910
H543        H  0.60999466  0.04031085  0.24302247     0.06880
C544        C  0.57655472  0.16740976  0.33286878     0.42580
C545        C  0.60423455  0.10299252  0.39581239    -0.06430
Co546      Co  0.58961163  0.30387513  0.35752304     0.73820
N547        N  0.37408358  0.03347712  0.25647886    -0.46620
C548        C  0.64613058  0.28859659  0.59942474     0.42850
N549        N  0.50721823  0.24933949  0.44666499    -0.46610
Co550      Co  0.36430722  0.30180554  0.35315947     0.73890
C551        C  0.39452585  0.24265696  0.43983518    -0.06940
C552        C  0.44451749  0.14887999  0.49382459    -0.06500
N553        N  0.56818168  0.31523129  0.48256105    -0.26030
N554        N  0.49169220  0.09628165  0.38905378    -0.46790
H555        H  0.38915339  0.30594185  0.59312228     0.06860
C556        C  0.55433312  0.19678372  0.34142171    -0.06920
Cl557      Cl  0.66608788  0.00616402  0.41785299    -0.49920
C558        C  0.35306602  0.05784790  0.23724665     0.42610
H559        H  0.54357061  0.31769547  0.56961154     0.06820
N560        N  0.62440226  0.19688781  0.33800887    -0.46630
C561        C  0.31325142  0.22029733  0.64189867    -0.21300
C562        C  0.61980438  0.23723667  0.61014406    -0.09340
C563        C  0.57224151  0.88582710  0.62780042     0.29510
C564        C  0.56408887  0.87736541  0.68921517    -0.21300
C565        C  0.60521223  0.22467489  0.72610069    -0.09360
C566        C  0.30388167  0.21151321  0.70305935     0.29520
F567        F  0.33567903  0.20733878  0.74016005    -0.19880
H568        H  0.34672866  0.22524633  0.62551332     0.17890
H569        H  0.53213167  0.87499953  0.70736463     0.17890
F570        F  0.53962017  0.88979146  0.59230406    -0.19870
C571        C  0.43330626  0.13195749  0.14576191    -0.21300
C572        C  0.39156822  0.11719622  0.10974763    -0.09340
C573        C  0.69338425  0.13126746  0.13217323     0.29510
C574        C  0.68579342  0.12557866  0.19404988    -0.21300
C575        C  0.37943825  0.10926056  0.22651752    -0.09360
C576        C  0.42659049  0.12663995  0.20781085     0.29520
F577        F  0.45994681  0.12436473  0.24388300    -0.19880
H578        H  0.46466983  0.13306914  0.12752023     0.17890
H579        H  0.65294413  0.12179033  0.21110386     0.17890
F580        F  0.66060962  0.13379990  0.09509305    -0.19870
C581        C  0.42306682  0.18427064  0.63261235    -0.21300
C582        C  0.44418994  0.22750681  0.60086878    -0.09340
C583        C  0.46304895  0.26874807  0.63887496     0.29510
C584        C  0.46407048  0.26648762  0.70273070    -0.21300
C585        C  0.44094162  0.22346880  0.73438228    -0.09360
C586        C  0.42028475  0.18199523  0.69632439     0.29520
F587        F  0.39708700  0.13799040  0.71914456    -0.19880
H588        H  0.40731591  0.15064354  0.60861794     0.17890
H589        H  0.48315378  0.29983101  0.72715040     0.17890
F590        F  0.47956321  0.31229126  0.61573790    -0.19870
C591        C  0.53361722  0.07733999  0.13324018    -0.21300
C592        C  0.55650264  0.12004484  0.10100055    -0.09340
C593        C  0.57743327  0.16186460  0.13850006     0.29430
C594        C  0.57508088  0.16017589  0.20226011    -0.21300
C595        C  0.55416390  0.11725521  0.23458839    -0.09360
C596        C  0.53509641  0.07566568  0.19712934     0.29520
F597        F  0.51875294  0.03231597  0.22080407    -0.19880
H598        H  0.51435844  0.04381564  0.10924796     0.17890
H599        H  0.59098172  0.19399005  0.22583861     0.17890
F600        F  0.60049041  0.20567139  0.11511473    -0.19870
C601        C  0.55806366  0.45302610  0.02869348    -0.02480
C602        C  0.55284567  0.45030547  0.30692759    -0.02480
C603        C  0.43888733  0.55646372  0.80668389    -0.02480
C604        C  0.44585419  0.56181416  0.52855016    -0.02480
C605        C  0.36737158  0.39906670  0.09526707     0.42460
N606        N  0.64906197  0.66723692  0.05126207     0.01350
C607        C  0.41883566  0.62717596  0.80935858    -0.06520
H608        H  0.50997677  0.46429698  0.90829939     0.06850
C609        C  0.36103107  0.47728128  0.83988528    -0.06870
Co610      Co  0.37400622  0.63833329  0.97827583     0.74180
N611        N  0.44790622  0.39741760  0.92780503    -0.26050
Co612      Co  0.39969390  0.37288527  0.85287053     0.74070
C613        C  0.41240821  0.50635675  0.83065768     0.42570
N614        N  0.60470116  0.39348327  0.93620390     0.00970
N615        N  0.39545439  0.43489193  0.84954208     0.01070
N616        N  0.39952153  0.57961358  0.88915193    -0.46900
H617        H  0.42655321  0.38201129  0.09039284     0.06830
N618        N  0.43866019  0.36862386  0.97330549     0.01360
N619        N  0.34761392  0.34167751  0.78456961     0.01100
C620        C  0.62914753  0.60934634  0.74166362     0.42700
N621        N  0.59280563  0.36498704  0.98217526    -0.25510
C622        C  0.63581710  0.53197199  0.99521670    -0.06430
N623        N  0.65469792  0.37300294  0.07744801    -0.46610
N624        N  0.34189910  0.30235468  0.75895287    -0.46840
C625        C  0.58441925  0.50289069  0.00417857     0.42480
N626        N  0.39228068  0.61584543  0.89950391     0.01350
N627        N  0.54888111  0.61187989  0.90793132    -0.25530
N628        N  0.35642336  0.66638549  0.05141334    -0.26020
N629        N  0.55814026  0.64075567  0.86254688     0.00990
H630        H  0.48678409  0.54491786  0.92722819     0.06880
H631        H  0.56998972  0.62640235  0.74597867     0.06910
N632        N  0.40413100  0.64434850  0.85356827    -0.26070
N633        N  0.35400917  0.43387607  0.85109799    -0.25680
N634        N  0.60140702  0.57438523  0.98571606     0.01350
C635        C  0.50793501  0.42781772  0.99881434     0.42750
C636        C  0.57797565  0.38214577  0.02627808    -0.06940
N637        N  0.64022618  0.34248669  0.78440028    -0.25680
H638        H  0.33311988  0.48645788  0.83464976     0.06900
N639        N  0.47420145  0.38433459  0.01428511    -0.46910
H640        H  0.56702246  0.36539554  0.06903664     0.06880
C641        C  0.48888764  0.58161510  0.83688338     0.42580
C642        C  0.38932168  0.37054427  0.08430928    -0.06430
Co643      Co  0.59713153  0.63634662  0.98277758     0.73820
N644        N  0.59739599  0.42968228  0.94642645    -0.46620
C645        C  0.41447671  0.58303382  0.83140482     0.42850
N646        N  0.56574301  0.53195019  0.99850794    -0.46610
Co647      Co  0.62283878  0.37090149  0.85739950     0.73890
C648        C  0.60721602  0.30462790  0.75208411    -0.06940
C649        C  0.49129669  0.43576868  0.93914573    -0.06500
N650        N  0.64285566  0.57539672  0.98421910    -0.26030
N651        N  0.43108866  0.47729918  0.83648281    -0.46790
H652        H  0.42956962  0.64387390  0.76653667     0.06860
C653        C  0.50547951  0.57353234  0.89649939    -0.06920
Cl654      Cl  0.66509738  0.33797693  0.91785346    -0.49920
C655        C  0.58234286  0.42627846  0.00410967     0.42610
H656        H  0.66371884  0.52278663  0.00053983     0.06820
N657        N  0.52260681  0.62514807  0.82160254    -0.46630
C658        C  0.57875049  0.42631357  0.33600394     0.42460
N659        N  0.58915412  0.36796631  0.36165969     0.01350
C660        C  0.36282297  0.31659870  0.58695081    -0.06520
H661        H  0.48173081  0.49170055  0.49953283     0.06850
C662        C  0.46181371  0.37936467  0.30898792    -0.06870
Co663      Co  0.63455393  0.37725575  0.48248518     0.74180
N664        N  0.40796580  0.43830353  0.48308083    -0.26050
Co665      Co  0.40925677  0.37514034  0.47817965     0.74070
C666        C  0.50224522  0.42410317  0.33138290     0.42570
N667        N  0.34159630  0.66252022  0.28399902     0.00970
N668        N  0.44831140  0.39388536  0.39924943     0.01070
N669        N  0.62502467  0.31280979  0.57985863    -0.46900
H670        H  0.61463683  0.46595265  0.42672818     0.06830
N671        N  0.36749828  0.43925037  0.48453130     0.01360
N672        N  0.40957535  0.64428932  0.47416877     0.01100
C673        C  0.41993058  0.58588345  0.49969810     0.42700
N674        N  0.63320259  0.66125983  0.28375563    -0.25510
C675        C  0.53690123  0.63303044  0.52665273    -0.06430
N676        N  0.56885865  0.38231725  0.32049343    -0.46610
N677        N  0.42977980  0.62984747  0.51537384    -0.46840
C678        C  0.49652921  0.58821162  0.50425407     0.42480
N679        N  0.65739677  0.35014284  0.55178875     0.01350
N680        N  0.59089164  0.57401345  0.35233502    -0.25530
N681        N  0.60935975  0.39839421  0.40723626    -0.26020
N682        N  0.63135422  0.57306873  0.35077729     0.00990
H683        H  0.51712169  0.52064518  0.33582566     0.06880
H684        H  0.38417079  0.54642926  0.40882350     0.06910
N685        N  0.36575840  0.35134705  0.55198145    -0.26070
N686        N  0.43066023  0.36377206  0.35319267    -0.25680
N687        N  0.55060771  0.61840028  0.43653025     0.01350
C688        C  0.42227803  0.51159263  0.50209244     0.42750
C689        C  0.63629930  0.36297351  0.24922326    -0.06940
N690        N  0.38942858  0.61393589  0.42848532    -0.25680
H691        H  0.45496853  0.36147590  0.26592401     0.06900
N692        N  0.37443990  0.48211439  0.49703489    -0.46910
H693        H  0.60999608  0.37364539  0.24302290     0.06880
C694        C  0.57655515  0.50074314  0.33286895     0.42580
C695        C  0.60423506  0.43632590  0.39581282    -0.06430
Co696      Co  0.58961170  0.63720838  0.35752361     0.73820
N697        N  0.37408447  0.36681075  0.25647878    -0.46620
C698        C  0.64613065  0.62193004  0.59942550     0.42850
N699        N  0.50721830  0.58267276  0.44666561    -0.46610
Co700      Co  0.36430733  0.63513884  0.35316027     0.73890
C701        C  0.39452593  0.57599026  0.43983598    -0.06940
C702        C  0.44451794  0.48221341  0.49382498    -0.06500
N703        N  0.56818173  0.64856458  0.48256160    -0.26030
N704        N  0.49169273  0.42961504  0.38905367    -0.46790
H705        H  0.38915352  0.63927543  0.59312313     0.06860
C706        C  0.55433340  0.53011698  0.34142193    -0.06920
Cl707      Cl  0.66608848  0.33949741  0.41785285    -0.49920
C708        C  0.35306722  0.39118190  0.23724691     0.42610
H709        H  0.54357068  0.65102886  0.56961207     0.06820
N710        N  0.62440264  0.53022125  0.33800938    -0.46630
C711        C  0.31325159  0.55363080  0.64189936    -0.21300
C712        C  0.61980451  0.57057012  0.61014479    -0.09340
C713        C  0.57224290  0.21915970  0.62779907     0.29510
C714        C  0.56409015  0.21069889  0.68921395    -0.21300
C715        C  0.60521229  0.55800815  0.72610139    -0.09360
C716        C  0.30388179  0.54484656  0.70306001     0.29520
F717        F  0.33567917  0.54067214  0.74016069    -0.19880
H718        H  0.34672886  0.55857989  0.62551402     0.17890
H719        H  0.53213284  0.20833314  0.70736287     0.17890
F720        F  0.53962143  0.22312312  0.59230176    -0.19870
C721        C  0.43330701  0.46529027  0.14576132    -0.21300
C722        C  0.39156871  0.45052898  0.10974754    -0.09340
C723        C  0.69338511  0.46460064  0.13217326     0.29510
C724        C  0.68579501  0.45891277  0.19405013    -0.21300
C725        C  0.37943978  0.44259456  0.22651767    -0.09360
C726        C  0.42659178  0.45997345  0.20781042     0.29520
F727        F  0.45994828  0.45769836  0.24388235    -0.19880
H728        H  0.46467028  0.46640145  0.12751937     0.17890
H729        H  0.65294605  0.45512497  0.21110452     0.17890
F730        F  0.66061009  0.46713269  0.09509336    -0.19870
C731        C  0.42306715  0.51760397  0.63261308    -0.21300
C732        C  0.44419017  0.56084013  0.60086948    -0.09340
C733        C  0.46304912  0.60208140  0.63887564     0.29510
C734        C  0.46407065  0.59982098  0.70273138    -0.21300
C735        C  0.44094184  0.55680218  0.73438298    -0.09360
C736        C  0.42028507  0.51532858  0.69632512     0.29520
F737        F  0.39708745  0.47132376  0.71914529    -0.19880
H738        H  0.40731632  0.48397687  0.60861867     0.17890
H739        H  0.48315390  0.63316438  0.72715107     0.17890
F740        F  0.47956333  0.64562458  0.61573857    -0.19870
C741        C  0.53361777  0.41067332  0.13324035    -0.21300
C742        C  0.55650315  0.45337814  0.10100068    -0.09340
C743        C  0.57743399  0.49519792  0.13850020     0.29430
C744        C  0.57508171  0.49350925  0.20226025    -0.21300
C745        C  0.55416465  0.45058859  0.23458854    -0.09360
C746        C  0.53509713  0.40899904  0.19712951     0.29520
F747        F  0.51875377  0.36564935  0.22080425    -0.19880
H748        H  0.51435891  0.37714897  0.10924815     0.17890
H749        H  0.59098267  0.52732342  0.22583876     0.17890
F750        F  0.60049128  0.53900470  0.11511487    -0.19870
C751        C  0.55806370  0.78635956  0.02869406    -0.02480
C752        C  0.55284554  0.78363868  0.30692817    -0.02480
C753        C  0.43888693  0.88979696  0.80668367    -0.02480
C754        C  0.44585361  0.89514760  0.52854991    -0.02480
C755        C  0.36737169  0.73240002  0.09526790     0.42460
N756        N  0.64906175  0.00057053  0.05126164     0.01350
C757        C  0.41883499  0.96050897  0.80935819    -0.06520
H758        H  0.50997683  0.79763041  0.90829989     0.06850
C759        C  0.36103088  0.81061451  0.83988544    -0.06870
Co760      Co  0.37400597  0.97166675  0.97827552     0.74180
N761        N  0.44790629  0.73075104  0.92780555    -0.26050
Co762      Co  0.39969394  0.70621867  0.85287106     0.74070
C763        C  0.41240795  0.83968998  0.83065749     0.42570
N764        N  0.60470127  0.72681669  0.93620461     0.00970
N765        N  0.39545436  0.76822531  0.84954245     0.01070
N766        N  0.39952114  0.91294681  0.88915174    -0.46900
H767        H  0.42655336  0.71534467  0.09039349     0.06830
N768        N  0.43866027  0.70195730  0.97330602     0.01360
N769        N  0.34761390  0.67501082  0.78457023     0.01100
C770        C  0.62914665  0.94267935  0.74166368     0.42700
N771        N  0.59280579  0.69832051  0.98217601    -0.25510
C772        C  0.63581704  0.86530552  0.99521711    -0.06430
N773        N  0.65469804  0.70633627  0.07744883    -0.46610
N774        N  0.34189912  0.63568800  0.75895352    -0.46840
C775        C  0.58441923  0.83622419  0.00417916     0.42480
N776        N  0.39228027  0.94917866  0.89950365     0.01350
N777        N  0.54888082  0.94521320  0.90793097    -0.25530
N778        N  0.35642324  0.99971930  0.05141284    -0.26020
N779        N  0.55813992  0.97408899  0.86254653     0.00990
H780        H  0.48678380  0.87825122  0.92722796     0.06880
H781        H  0.56998924  0.95973603  0.74597816     0.06910
N782        N  0.40413047  0.97768161  0.85356789    -0.26070
N783        N  0.35400912  0.76720940  0.85109846    -0.25680
N784        N  0.60140680  0.90771861  0.98571607     0.01350
C785        C  0.50793508  0.76115114  0.99881484     0.42750
C786        C  0.57797585  0.71547930  0.02627883    -0.06940
N787        N  0.64022613  0.67581994  0.78440098    -0.25680
H788        H  0.33311961  0.81979100  0.83464984     0.06900
N789        N  0.47420153  0.71766802  0.01428563    -0.46910
H790        H  0.56702272  0.69872912  0.06903743     0.06880
C791        C  0.48888725  0.91494844  0.83688317     0.42580
C792        C  0.38932183  0.70387764  0.08430997    -0.06430
Co793      Co  0.59713125  0.96967999  0.98277723     0.73820
N794        N  0.59739608  0.76301571  0.94642711    -0.46620
C795        C  0.41447617  0.91636693  0.83140456     0.42850
N796        N  0.56574288  0.86528360  0.99850828    -0.46610
Co797      Co  0.62283880  0.70423484  0.85740019     0.73890
C798        C  0.60721597  0.63796109  0.75208491    -0.06940
C799        C  0.49129676  0.76910211  0.93914624    -0.06500
N800        N  0.64285547  0.90873018  0.98421916    -0.26030
N801        N  0.43108852  0.81063253  0.83648277    -0.46790
H802        H  0.42956879  0.97720680  0.76653619     0.06860
C803        C  0.50547920  0.90686567  0.89649912    -0.06920
Cl804      Cl  0.66509746  0.67131034  0.91785410    -0.49920
C805        C  0.58234299  0.75961196  0.00411034     0.42610
H806        H  0.66371884  0.85612027  0.00054036     0.06820
N807        N  0.52260641  0.95848140  0.82160228    -0.46630
C808        C  0.57875047  0.75964684  0.33600442     0.42460
N809        N  0.58915411  0.70129955  0.36166019     0.01350
C810        C  0.36282305  0.64993222  0.58695162    -0.06520
H811        H  0.48173069  0.82503423  0.49953313     0.06850
C812        C  0.46181372  0.71269780  0.30898874    -0.06870
Co813      Co  0.63455389  0.71058904  0.48248570     0.74180
N814        N  0.40796573  0.77163693  0.48308137    -0.26050
Co815      Co  0.40925679  0.70847371  0.47818041     0.74070
C816        C  0.50224517  0.75743633  0.33138361     0.42570
N817        N  0.34159543  0.99585328  0.28399851     0.00970
N818        N  0.44831142  0.72721864  0.39925019     0.01070
N819        N  0.62502469  0.64614317  0.57985929    -0.46900
H820        H  0.61463676  0.79928589  0.42672868     0.06830
N821        N  0.36749815  0.77258366  0.48453166     0.01360
N822        N  0.40957462  0.97762258  0.47416839     0.01100
C823        C  0.41992980  0.91921670  0.49969788     0.42700
N824        N  0.63320161  0.99459263  0.28375505    -0.25510
C825        C  0.53690050  0.96636429  0.52665210    -0.06430
N826        N  0.56885866  0.71565051  0.32049391    -0.46610
N827        N  0.42977895  0.96318070  0.51537359    -0.46840
C828        C  0.49652858  0.92154527  0.50425372     0.42480
N829        N  0.65739677  0.68347623  0.55178939     0.01350
N830        N  0.59089104  0.90734663  0.35233498    -0.25530
N831        N  0.60935970  0.73172745  0.40723677    -0.26020
N832        N  0.63135370  0.90640203  0.35077723     0.00990
H833        H  0.51712115  0.85397808  0.33582609     0.06880
H834        H  0.38417021  0.87976255  0.40882319     0.06910
N835        N  0.36575843  0.68468051  0.55198218    -0.26070
N836        N  0.43066027  0.69710529  0.35319350    -0.25680
N837        N  0.55060710  0.95173372  0.43652990     0.01350
C838        C  0.42227769  0.84492606  0.50209224     0.42750
C839        C  0.63629946  0.69630681  0.24922395    -0.06940
N840        N  0.38942800  0.94726920  0.42848488    -0.25680
H841        H  0.45496853  0.69480895  0.26592489     0.06900
N842        N  0.37443960  0.81544768  0.49703478    -0.46910
H843        H  0.60999623  0.70697867  0.24302355     0.06880
C844        C  0.57655483  0.83407631  0.33286953     0.42580
C845        C  0.60423501  0.76965914  0.39581331    -0.06430
Co846      Co  0.58961098  0.97054153  0.35752321     0.73820
N847        N  0.37408465  0.70014410  0.25647962    -0.46620
C848        C  0.64612940  0.95526364  0.59942524     0.42850
N849        N  0.50721772  0.91600618  0.44666538    -0.46610
Co850      Co  0.36430671  0.96847215  0.35315983     0.73890
C851        C  0.39452532  0.90932357  0.43983564    -0.06940
C852        C  0.44451776  0.81554692  0.49382525    -0.06500
N853        N  0.56818106  0.98189824  0.48256103    -0.26030
N854        N  0.49169273  0.76294831  0.38905436    -0.46790
H855        H  0.38915197  0.97260818  0.59312246     0.06860
C856        C  0.55433291  0.86345005  0.34142225    -0.06920
Cl857      Cl  0.66608852  0.67283070  0.41785353    -0.49920
C858        C  0.35306740  0.72451525  0.23724773     0.42610
H859        H  0.54356988  0.98436291  0.56961128     0.06820
N860        N  0.62440228  0.86355456  0.33800970    -0.46630
C861        C  0.31324982  0.88696400  0.64189877    -0.21300
C862        C  0.61980285  0.90390380  0.61014491    -0.09340
C863        C  0.57224301  0.55249306  0.62779978     0.29510
C864        C  0.56409022  0.54403214  0.68921463    -0.21300
C865        C  0.60521108  0.89134112  0.72610150    -0.09360
C866        C  0.30388026  0.87817940  0.70305943     0.29520
F867        F  0.33567776  0.87400470  0.74015957    -0.19880
H868        H  0.34672692  0.89191295  0.62551301     0.17890
H869        H  0.53213288  0.54166629  0.70736356     0.17890
F870        F  0.53962152  0.55645648  0.59230249    -0.19870
C871        C  0.43330712  0.79862358  0.14576221    -0.21300
C872        C  0.39156881  0.78386228  0.10974846    -0.09340
C873        C  0.69338521  0.79793394  0.13217420     0.29510
C874        C  0.68579518  0.79224614  0.19405109    -0.21300
C875        C  0.37943995  0.77592792  0.22651860    -0.09360
C876        C  0.42659195  0.79330682  0.20781131     0.29520
F877        F  0.45994845  0.79103171  0.24388322    -0.19880
H878        H  0.46467037  0.79973472  0.12752023     0.17890
H879        H  0.65294625  0.78845838  0.21110553     0.17890
F880        F  0.66061016  0.80046596  0.09509434    -0.19870
C881        C  0.42306660  0.85093733  0.63261282    -0.21300
C882        C  0.44418958  0.89417351  0.60086925    -0.09340
C883        C  0.46304849  0.93541475  0.63887545     0.29510
C884        C  0.46407015  0.93315429  0.70273118    -0.21300
C885        C  0.44094141  0.89013546  0.73438276    -0.09360
C886        C  0.42028459  0.84866190  0.69632487     0.29520
F887        F  0.39708698  0.80465707  0.71914505    -0.19880
H888        H  0.40731575  0.81731024  0.60861841     0.17890
H889        H  0.48315341  0.96649768  0.72715089     0.17890
F890        F  0.47956249  0.97895792  0.61573844    -0.19870
C891        C  0.53361772  0.74400668  0.13324087    -0.21300
C892        C  0.55650307  0.78671153  0.10100125    -0.09340
C893        C  0.57743378  0.82853128  0.13850081     0.29430
C894        C  0.57508145  0.82684255  0.20226085    -0.21300
C895        C  0.55416447  0.78392186  0.23458911    -0.09360
C896        C  0.53509703  0.74233235  0.19713003     0.29520
F897        F  0.51875373  0.69898265  0.22080472    -0.19880
H898        H  0.51435892  0.71048234  0.10924863     0.17890
H899        H  0.59098232  0.86065670  0.22583939     0.17890
F900        F  0.60049096  0.87233808  0.11511550    -0.19870
C901        C  0.89139670  0.11969284  0.02869337    -0.02480
C902        C  0.88617836  0.11697206  0.30692744    -0.02480
C903        C  0.77222050  0.22313031  0.80668320    -0.02480
C904        C  0.77918738  0.22848088  0.52854946    -0.02480
C905        C  0.70070474  0.06573398  0.09526686     0.42460
N906        N  0.98239516  0.33390355  0.05126136     0.01350
C907        C  0.75216892  0.29384259  0.80935801    -0.06520
H908        H  0.84330987  0.13096366  0.90829908     0.06850
C909        C  0.69436421  0.14394794  0.83988493    -0.06870
Co910      Co  0.70733943  0.30499987  0.97827526     0.74180
N911        N  0.78123932  0.06408431  0.92780486    -0.26050
Co912      Co  0.73302685  0.03955182  0.85287053     0.74070
C913        C  0.74574132  0.17302331  0.83065700     0.42570
N914        N  0.93803434  0.06015002  0.93620410     0.00970
N915        N  0.72878743  0.10155853  0.84954182     0.01070
N916        N  0.73285475  0.24628016  0.88915132    -0.46900
H917        H  0.75988663  0.04867903  0.09039247     0.06830
N918        N  0.77199332  0.03529064  0.97330540     0.01360
N919        N  0.68094669  0.00834387  0.78456985     0.01100
C920        C  0.96248087  0.27601310  0.74166286     0.42700
N921        N  0.92613877  0.03165380  0.98217547    -0.25510
C922        C  0.96915024  0.19863862  0.99521647    -0.06430
N923        N  0.98803104  0.03966992  0.07744814    -0.46610
N924        N  0.67523161  0.96902081  0.75895350    -0.46840
C925        C  0.91775238  0.16955741  0.00417843     0.42480
N926        N  0.72561389  0.28251200  0.89950332     0.01350
N927        N  0.88221435  0.27854649  0.90793054    -0.25530
N928        N  0.68975654  0.33305210  0.05141270    -0.26020
N929        N  0.89147352  0.30742225  0.86254608     0.00990
H930        H  0.82011731  0.21158449  0.92722747     0.06880
H931        H  0.90332312  0.29306923  0.74597781     0.06910
N932        N  0.73746424  0.31101509  0.85356770    -0.26070
N933        N  0.68734226  0.10054276  0.85109788    -0.25680
N934        N  0.93474020  0.24105187  0.98571543     0.01350
C935        C  0.84126813  0.09448447  0.99881411     0.42750
C936        C  0.91130871  0.04881252  0.02627821    -0.06940
N937        N  0.97355908  0.00915330  0.78440047    -0.25680
H938        H  0.66645303  0.15312458  0.83464940     0.06900
N939        N  0.80753459  0.05100139  0.01428496    -0.46910
H940        H  0.90035550  0.03206232  0.06903678     0.06880
C941        C  0.82222086  0.24828166  0.83688261     0.42580
C942        C  0.72265506  0.03721175  0.08430908    -0.06430
Co943      Co  0.93046473  0.30301322  0.98277684     0.73820
N944        N  0.93072911  0.09634900  0.94642655    -0.46620
C945        C  0.74780995  0.24970044  0.83140421     0.42850
N946        N  0.89907617  0.19861690  0.99850752    -0.46610
Co947      Co  0.95617185  0.03756819  0.85739971     0.73890
C948        C  0.94054877  0.97129448  0.75208452    -0.06940
C949        C  0.82462981  0.10243539  0.93914547    -0.06500
N950        N  0.97618882  0.24206333  0.98421857    -0.26030
N951        N  0.76442171  0.14396570  0.83648223    -0.46790
H952        H  0.76290290  0.31054056  0.76653612     0.06860
C953        C  0.83881274  0.24019894  0.89649863    -0.06920
Cl954      Cl  0.99843047  0.00464366  0.91785367    -0.49920
C955        C  0.91567592  0.09294519  0.00410972     0.42610
H956        H  0.99705196  0.18945326  0.00053978     0.06820
N957        N  0.85594007  0.29181463  0.82160173    -0.46630
C958        C  0.91208318  0.09298009  0.33600363     0.42460
N959        N  0.92248680  0.03463281  0.36165948     0.01350
C960        C  0.69615513  0.98326532  0.58695101    -0.06520
H961        H  0.81506367  0.15836701  0.49953249     0.06850
C962        C  0.79514638  0.04603132  0.30898801    -0.06870
Co963      Co  0.96788668  0.04392262  0.48248500     0.74180
N964        N  0.74129858  0.10497014  0.48308067    -0.26050
Co965      Co  0.74258944  0.04180693  0.47817985     0.74070
C966        C  0.83557793  0.09076981  0.33138293     0.42570
N967        N  0.67492948  0.32918692  0.28399828     0.00970
N968        N  0.78164422  0.06055193  0.39924964     0.01070
N969        N  0.95835714  0.97947710  0.57985903    -0.46900
H970        H  0.94796968  0.13261930  0.42672771     0.06830
N971        N  0.70083114  0.10591714  0.48453094     0.01360
N972        N  0.74290867  0.31095603  0.47416790     0.01100
C973        C  0.75326387  0.25255020  0.49969729     0.42700
N974        N  0.96653579  0.32792656  0.28375498    -0.25510
C975        C  0.87023450  0.29969710  0.52665217    -0.06430
N976        N  0.90219128  0.04898371  0.32049321    -0.46610
N977        N  0.76311315  0.29651422  0.51537296    -0.46840
C978        C  0.82986245  0.25487829  0.50425346     0.42480
N979        N  0.99072938  0.01680988  0.55178885     0.01350
N980        N  0.92422479  0.24068019  0.35233447    -0.25530
N981        N  0.94269255  0.06506084  0.40723591    -0.26020
N982        N  0.96468733  0.23973538  0.35077660     0.00990
H983        H  0.85045475  0.18731198  0.33582569     0.06880
H984        H  0.71750399  0.21309592  0.40882273     0.06910
N985        N  0.69909084  0.01801373  0.55198152    -0.26070
N986        N  0.76399299  0.03043867  0.35319286    -0.25680
N987        N  0.88394099  0.28506702  0.43652967     0.01350
C988        C  0.75561109  0.17825936  0.50209175     0.42750
C989        C  0.96963146  0.02963927  0.24922298    -0.06940
N990        N  0.72276185  0.28060258  0.42848448    -0.25680
H991        H  0.78830113  0.02814257  0.26592408     0.06900
N992        N  0.70777292  0.14878125  0.49703426    -0.46910
H993        H  0.94332800  0.04031085  0.24302247     0.06880
C994        C  0.90988806  0.16740976  0.33286878     0.42580
C995        C  0.93756788  0.10299252  0.39581239    -0.06430
Co996      Co  0.92294496  0.30387513  0.35752304     0.73820
N997        N  0.70741691  0.03347712  0.25647885    -0.46620
C998        C  0.97946391  0.28859659  0.59942474     0.42850
N999        N  0.84055156  0.24933949  0.44666499    -0.46610
Co1000     Co  0.69764055  0.30180554  0.35315947     0.73890
C1001       C  0.72785918  0.24265696  0.43983518    -0.06940
C1002       C  0.77785083  0.14887999  0.49382459    -0.06500
N1003       N  0.90151502  0.31523129  0.48256105    -0.26030
N1004       N  0.82502553  0.09628165  0.38905378    -0.46790
H1005       H  0.72248673  0.30594185  0.59312228     0.06860
C1006       C  0.88766645  0.19678372  0.34142171    -0.06920
Cl1007     Cl  0.99942121  0.00616403  0.41785299    -0.49920
C1008       C  0.68639935  0.05784790  0.23724665     0.42610
H1009       H  0.87690394  0.31769547  0.56961154     0.06820
N1010       N  0.95773559  0.19688781  0.33800887    -0.46630
C1011       C  0.64658476  0.22029733  0.64189867    -0.21300
C1012       C  0.95313771  0.23723668  0.61014406    -0.09340
C1013       C  0.90557484  0.88582710  0.62780042     0.29510
C1014       C  0.89742220  0.87736541  0.68921517    -0.21300
C1015       C  0.93854556  0.22467489  0.72610069    -0.09360
C1016       C  0.63721500  0.21151321  0.70305936     0.29520
F1017       F  0.66901236  0.20733878  0.74016006    -0.19880
H1018       H  0.68006199  0.22524633  0.62551332     0.17890
H1019       H  0.86546500  0.87499953  0.70736463     0.17890
F1020       F  0.87295351  0.88979146  0.59230406    -0.19870
C1021       C  0.76663960  0.13195749  0.14576191    -0.21300
C1022       C  0.72490155  0.11719622  0.10974763    -0.09340
C1023       C  0.02671758  0.13126746  0.13217323     0.29510
C1024       C  0.01912675  0.12557866  0.19404988    -0.21300
C1025       C  0.71277158  0.10926056  0.22651751    -0.09360
C1026       C  0.75992382  0.12663995  0.20781085     0.29520
F1027       F  0.79328015  0.12436473  0.24388300    -0.19880
H1028       H  0.79800316  0.13306914  0.12752022     0.17890
H1029       H  0.98627746  0.12179033  0.21110386     0.17890
F1030       F  0.99394295  0.13379990  0.09509305    -0.19870
C1031       C  0.75640016  0.18427064  0.63261235    -0.21300
C1032       C  0.77752328  0.22750681  0.60086878    -0.09340
C1033       C  0.79638228  0.26874807  0.63887496     0.29510
C1034       C  0.79740382  0.26648762  0.70273070    -0.21300
C1035       C  0.77427495  0.22346880  0.73438228    -0.09360
C1036       C  0.75361808  0.18199523  0.69632439     0.29520
F1037       F  0.73042034  0.13799040  0.71914456    -0.19880
H1038       H  0.74064924  0.15064354  0.60861794     0.17890
H1039       H  0.81648712  0.29983101  0.72715040     0.17890
F1040       F  0.81289654  0.31229126  0.61573790    -0.19870
C1041       C  0.86695055  0.07733999  0.13324018    -0.21300
C1042       C  0.88983598  0.12004484  0.10100055    -0.09340
C1043       C  0.91076660  0.16186460  0.13850006     0.29430
C1044       C  0.90841422  0.16017589  0.20226011    -0.21300
C1045       C  0.88749723  0.11725521  0.23458839    -0.09360
C1046       C  0.86842974  0.07566568  0.19712934     0.29520
F1047       F  0.85208628  0.03231597  0.22080407    -0.19880
H1048       H  0.84769178  0.04381564  0.10924796     0.17890
H1049       H  0.92431505  0.19399005  0.22583861     0.17890
F1050       F  0.93382374  0.20567139  0.11511473    -0.19870
C1051       C  0.89139699  0.45302609  0.02869348    -0.02480
C1052       C  0.88617900  0.45030547  0.30692759    -0.02480
C1053       C  0.77222066  0.55646372  0.80668389    -0.02480
C1054       C  0.77918753  0.56181416  0.52855016    -0.02480
C1055       C  0.70070491  0.39906670  0.09526707     0.42460
N1056       N  0.98239530  0.66723692  0.05126207     0.01350
C1057       C  0.75216900  0.62717597  0.80935858    -0.06520
H1058       H  0.84331011  0.46429698  0.90829939     0.06850
C1059       C  0.69436441  0.47728128  0.83988528    -0.06870
Co1060     Co  0.70733956  0.63833329  0.97827583     0.74180
N1061       N  0.78123956  0.39741760  0.92780503    -0.26050
Co1062     Co  0.73302723  0.37288527  0.85287053     0.74070
C1063       C  0.74574155  0.50635675  0.83065768     0.42570
N1064       N  0.93803450  0.39348327  0.93620390     0.00970
N1065       N  0.72878772  0.43489193  0.84954208     0.01070
N1066       N  0.73285487  0.57961358  0.88915193    -0.46900
H1067       H  0.75988654  0.38201129  0.09039284     0.06830
N1068       N  0.77199352  0.36862386  0.97330549     0.01360
N1069       N  0.68094725  0.34167751  0.78456961     0.01100
C1070       C  0.96248086  0.60934634  0.74166362     0.42700
N1071       N  0.92613896  0.36498704  0.98217525    -0.25510
C1072       C  0.96915043  0.53197199  0.99521670    -0.06430
N1073       N  0.98803125  0.37300294  0.07744801    -0.46610
N1074       N  0.67523244  0.30235468  0.75895287    -0.46840
C1075       C  0.91775258  0.50289069  0.00417857     0.42480
N1076       N  0.72561401  0.61584543  0.89950391     0.01350
N1077       N  0.88221444  0.61187989  0.90793132    -0.25530
N1078       N  0.68975669  0.66638549  0.05141334    -0.26020
N1079       N  0.89147359  0.64075567  0.86254688     0.00990
H1080       H  0.82011742  0.54491786  0.92722819     0.06880
H1081       H  0.90332306  0.62640235  0.74597867     0.06910
N1082       N  0.73746434  0.64434850  0.85356827    -0.26070
N1083       N  0.68734250  0.43387608  0.85109799    -0.25680
N1084       N  0.93474036  0.57438523  0.98571606     0.01350
C1085       C  0.84126834  0.42781772  0.99881434     0.42750
C1086       C  0.91130898  0.38214577  0.02627808    -0.06940
N1087       N  0.97355951  0.34248669  0.78440028    -0.25680
H1088       H  0.66645321  0.48645788  0.83464976     0.06900
N1089       N  0.80753478  0.38433459  0.01428511    -0.46910
H1090       H  0.90035580  0.36539554  0.06903664     0.06880
C1091       C  0.82222097  0.58161510  0.83688338     0.42580
C1092       C  0.72265502  0.37054427  0.08430928    -0.06430
Co1093     Co  0.93046486  0.63634662  0.98277758     0.73820
N1094       N  0.93072932  0.42968228  0.94642645    -0.46620
C1095       C  0.74781004  0.58303382  0.83140482     0.42850
N1096       N  0.89907634  0.53195019  0.99850794    -0.46610
Co1097     Co  0.95617211  0.37090149  0.85739950     0.73890
C1098       C  0.94054935  0.30462790  0.75208411    -0.06940
C1099       C  0.82463003  0.43576868  0.93914573    -0.06500
N1100       N  0.97618899  0.57539672  0.98421910    -0.26030
N1101       N  0.76442200  0.47729918  0.83648281    -0.46790
H1102       H  0.76290295  0.64387390  0.76653667     0.06860
C1103       C  0.83881284  0.57353234  0.89649939    -0.06920
Cl1104     Cl  0.99843071  0.33797693  0.91785346    -0.49920
C1105       C  0.91567619  0.42627846  0.00410967     0.42610
H1106       H  0.99705218  0.52278663  0.00053983     0.06820
N1107       N  0.85594014  0.62514807  0.82160254    -0.46630
C1108       C  0.91208382  0.42631357  0.33600394     0.42460
N1109       N  0.92248745  0.36796631  0.36165969     0.01350
C1110       C  0.69615630  0.31659870  0.58695081    -0.06520
H1111       H  0.81506415  0.49170055  0.49953283     0.06850
C1112       C  0.79514704  0.37936467  0.30898792    -0.06870
Co1113     Co  0.96788726  0.37725575  0.48248518     0.74180
N1114       N  0.74129913  0.43830353  0.48308083    -0.26050
Co1115     Co  0.74259011  0.37514034  0.47817965     0.74070
C1116       C  0.83557855  0.42410317  0.33138290     0.42570
N1117       N  0.67492963  0.66252022  0.28399902     0.00970
N1118       N  0.78164473  0.39388536  0.39924943     0.01070
N1119       N  0.95835800  0.31280979  0.57985863    -0.46900
H1120       H  0.94797017  0.46595265  0.42672818     0.06830
N1121       N  0.70083162  0.43925037  0.48453130     0.01360
N1122       N  0.74290868  0.64428932  0.47416877     0.01100
C1123       C  0.75326392  0.58588345  0.49969810     0.42700
N1124       N  0.96653593  0.66125983  0.28375563    -0.25510
C1125       C  0.87023457  0.63303044  0.52665273    -0.06430
N1126       N  0.90219199  0.38231725  0.32049343    -0.46610
N1127       N  0.76311314  0.62984747  0.51537384    -0.46840
C1128       C  0.82986254  0.58821162  0.50425407     0.42480
N1129       N  0.99073011  0.35014284  0.55178875     0.01350
N1130       N  0.92422497  0.57401345  0.35233502    -0.25530
N1131       N  0.94269309  0.39839421  0.40723626    -0.26020
N1132       N  0.96468755  0.57306873  0.35077729     0.00990
H1133       H  0.85045502  0.52064518  0.33582566     0.06880
H1134       H  0.71750412  0.54642926  0.40882350     0.06910
N1135       N  0.69909173  0.35134705  0.55198145    -0.26070
N1136       N  0.76399357  0.36377206  0.35319267    -0.25680
N1137       N  0.88394105  0.61840028  0.43653025     0.01350
C1138       C  0.75561136  0.51159263  0.50209243     0.42750
C1139       C  0.96963263  0.36297351  0.24922326    -0.06940
N1140       N  0.72276191  0.61393589  0.42848532    -0.25680
H1141       H  0.78830186  0.36147590  0.26592401     0.06900
N1142       N  0.70777323  0.48211439  0.49703489    -0.46910
H1143       H  0.94332941  0.37364539  0.24302290     0.06880
C1144       C  0.90988849  0.50074314  0.33286895     0.42580
C1145       C  0.93756840  0.43632590  0.39581282    -0.06430
Co1146     Co  0.92294503  0.63720838  0.35752361     0.73820
N1147       N  0.70741780  0.36681075  0.25647878    -0.46620
C1148       C  0.97946398  0.62193004  0.59942550     0.42850
N1149       N  0.84055163  0.58267276  0.44666561    -0.46610
Co1150     Co  0.69764067  0.63513884  0.35316027     0.73890
C1151       C  0.72785926  0.57599026  0.43983598    -0.06940
C1152       C  0.77785127  0.48221341  0.49382498    -0.06500
N1153       N  0.90151506  0.64856458  0.48256160    -0.26030
N1154       N  0.82502607  0.42961504  0.38905367    -0.46790
H1155       H  0.72248685  0.63927543  0.59312313     0.06860
C1156       C  0.88766673  0.53011698  0.34142193    -0.06920
Cl1157     Cl  0.99942182  0.33949741  0.41785285    -0.49920
C1158       C  0.68640056  0.39118190  0.23724691     0.42610
H1159       H  0.87690401  0.65102886  0.56961207     0.06820
N1160       N  0.95773598  0.53022125  0.33800938    -0.46630
C1161       C  0.64658492  0.55363080  0.64189936    -0.21300
C1162       C  0.95313784  0.57057013  0.61014479    -0.09340
C1163       C  0.90557623  0.21915970  0.62779908     0.29510
C1164       C  0.89742348  0.21069889  0.68921395    -0.21300
C1165       C  0.93854563  0.55800815  0.72610139    -0.09360
C1166       C  0.63721513  0.54484656  0.70306001     0.29520
F1167       F  0.66901251  0.54067215  0.74016069    -0.19880
H1168       H  0.68006219  0.55857989  0.62551402     0.17890
H1169       H  0.86546617  0.20833313  0.70736287     0.17890
F1170       F  0.87295476  0.22312312  0.59230176    -0.19870
C1171       C  0.76664034  0.46529027  0.14576132    -0.21300
C1172       C  0.72490204  0.45052898  0.10974754    -0.09340
C1173       C  0.02671844  0.46460065  0.13217326     0.29510
C1174       C  0.01912835  0.45891277  0.19405013    -0.21300
C1175       C  0.71277311  0.44259456  0.22651767    -0.09360
C1176       C  0.75992512  0.45997345  0.20781042     0.29520
F1177       F  0.79328162  0.45769836  0.24388235    -0.19880
H1178       H  0.79800361  0.46640145  0.12751937     0.17890
H1179       H  0.98627938  0.45512497  0.21110452     0.17890
F1180       F  0.99394343  0.46713269  0.09509336    -0.19870
C1181       C  0.75640049  0.51760397  0.63261307    -0.21300
C1182       C  0.77752351  0.56084013  0.60086948    -0.09340
C1183       C  0.79638246  0.60208140  0.63887564     0.29510
C1184       C  0.79740399  0.59982098  0.70273138    -0.21300
C1185       C  0.77427517  0.55680218  0.73438298    -0.09360
C1186       C  0.75361841  0.51532858  0.69632511     0.29520
F1187       F  0.73042078  0.47132376  0.71914529    -0.19880
H1188       H  0.74064966  0.48397687  0.60861867     0.17890
H1189       H  0.81648723  0.63316438  0.72715107     0.17890
F1190       F  0.81289667  0.64562458  0.61573857    -0.19870
C1191       C  0.86695110  0.41067332  0.13324035    -0.21300
C1192       C  0.88983648  0.45337814  0.10100068    -0.09340
C1193       C  0.91076733  0.49519792  0.13850020     0.29430
C1194       C  0.90841504  0.49350925  0.20226025    -0.21300
C1195       C  0.88749798  0.45058859  0.23458854    -0.09360
C1196       C  0.86843046  0.40899904  0.19712951     0.29520
F1197       F  0.85208710  0.36564935  0.22080425    -0.19880
H1198       H  0.84769224  0.37714897  0.10924815     0.17890
H1199       H  0.92431600  0.52732342  0.22583876     0.17890
F1200       F  0.93382461  0.53900470  0.11511487    -0.19870
C1201       C  0.89139703  0.78635956  0.02869406    -0.02480
C1202       C  0.88617887  0.78363868  0.30692817    -0.02480
C1203       C  0.77222026  0.88979696  0.80668367    -0.02480
C1204       C  0.77918694  0.89514760  0.52854991    -0.02480
C1205       C  0.70070503  0.73240002  0.09526790     0.42460
N1206       N  0.98239508  0.00057053  0.05126164     0.01350
C1207       C  0.75216832  0.96050897  0.80935819    -0.06520
H1208       H  0.84331017  0.79763041  0.90829989     0.06850
C1209       C  0.69436422  0.81061451  0.83988545    -0.06870
Co1210     Co  0.70733930  0.97166675  0.97827552     0.74180
N1211       N  0.78123962  0.73075104  0.92780555    -0.26050
Co1212     Co  0.73302727  0.70621867  0.85287106     0.74070
C1213       C  0.74574129  0.83968999  0.83065749     0.42570
N1214       N  0.93803460  0.72681669  0.93620461     0.00970
N1215       N  0.72878770  0.76822532  0.84954245     0.01070
N1216       N  0.73285448  0.91294681  0.88915174    -0.46900
H1217       H  0.75988670  0.71534467  0.09039349     0.06830
N1218       N  0.77199360  0.70195730  0.97330602     0.01360
N1219       N  0.68094724  0.67501082  0.78457023     0.01100
C1220       C  0.96247998  0.94267935  0.74166369     0.42700
N1221       N  0.92613912  0.69832051  0.98217601    -0.25510
C1222       C  0.96915037  0.86530552  0.99521711    -0.06430
N1223       N  0.98803137  0.70633627  0.07744884    -0.46610
N1224       N  0.67523245  0.63568800  0.75895352    -0.46840
C1225       C  0.91775256  0.83622419  0.00417916     0.42480
N1226       N  0.72561360  0.94917866  0.89950365     0.01350
N1227       N  0.88221416  0.94521320  0.90793097    -0.25530
N1228       N  0.68975658  0.99971930  0.05141284    -0.26020
N1229       N  0.89147326  0.97408899  0.86254653     0.00990
H1230       H  0.82011713  0.87825122  0.92722797     0.06880
H1231       H  0.90332257  0.95973602  0.74597816     0.06910
N1232       N  0.73746380  0.97768161  0.85356789    -0.26070
N1233       N  0.68734245  0.76720940  0.85109846    -0.25680
N1234       N  0.93474013  0.90771861  0.98571607     0.01350
C1235       C  0.84126841  0.76115114  0.99881484     0.42750
C1236       C  0.91130919  0.71547930  0.02627883    -0.06940
N1237       N  0.97355947  0.67581994  0.78440098    -0.25680
H1238       H  0.66645294  0.81979100  0.83464984     0.06900
N1239       N  0.80753487  0.71766802  0.01428563    -0.46910
H1240       H  0.90035605  0.69872912  0.06903743     0.06880
C1241       C  0.82222058  0.91494844  0.83688317     0.42580
C1242       C  0.72265516  0.70387764  0.08430997    -0.06430
Co1243     Co  0.93046458  0.96967999  0.98277724     0.73820
N1244       N  0.93072941  0.76301571  0.94642711    -0.46620
C1245       C  0.74780950  0.91636693  0.83140456     0.42850
N1246       N  0.89907621  0.86528360  0.99850828    -0.46610
Co1247     Co  0.95617214  0.70423484  0.85740019     0.73890
C1248       C  0.94054930  0.63796109  0.75208491    -0.06940
C1249       C  0.82463009  0.76910211  0.93914624    -0.06500
N1250       N  0.97618880  0.90873018  0.98421916    -0.26030
N1251       N  0.76442186  0.81063253  0.83648277    -0.46790
H1252       H  0.76290212  0.97720680  0.76653620     0.06860
C1253       C  0.83881253  0.90686567  0.89649912    -0.06920
Cl1254     Cl  0.99843080  0.67131034  0.91785410    -0.49920
C1255       C  0.91567632  0.75961196  0.00411034     0.42610
H1256       H  0.99705218  0.85612027  0.00054036     0.06820
N1257       N  0.85593974  0.95848140  0.82160228    -0.46630
C1258       C  0.91208380  0.75964684  0.33600442     0.42460
N1259       N  0.92248745  0.70129956  0.36166019     0.01350
C1260       C  0.69615638  0.64993222  0.58695162    -0.06520
H1261       H  0.81506402  0.82503423  0.49953313     0.06850
C1262       C  0.79514705  0.71269780  0.30898874    -0.06870
Co1263     Co  0.96788723  0.71058904  0.48248570     0.74180
N1264       N  0.74129907  0.77163693  0.48308137    -0.26050
Co1265     Co  0.74259013  0.70847371  0.47818041     0.74070
C1266       C  0.83557850  0.75743633  0.33138361     0.42570
N1267       N  0.67492877  0.99585328  0.28399851     0.00970
N1268       N  0.78164476  0.72721864  0.39925019     0.01070
N1269       N  0.95835802  0.64614317  0.57985929    -0.46900
H1270       H  0.94797010  0.79928589  0.42672867     0.06830
N1271       N  0.70083149  0.77258366  0.48453166     0.01360
N1272       N  0.74290796  0.97762258  0.47416839     0.01100
C1273       C  0.75326313  0.91921670  0.49969788     0.42700
N1274       N  0.96653494  0.99459263  0.28375505    -0.25510
C1275       C  0.87023383  0.96636429  0.52665210    -0.06430
N1276       N  0.90219199  0.71565051  0.32049391    -0.46610
N1277       N  0.76311229  0.96318070  0.51537359    -0.46840
C1278       C  0.82986192  0.92154527  0.50425372     0.42480
N1279       N  0.99073010  0.68347623  0.55178939     0.01350
N1280       N  0.92422438  0.90734663  0.35233498    -0.25530
N1281       N  0.94269304  0.73172745  0.40723677    -0.26020
N1282       N  0.96468703  0.90640203  0.35077722     0.00990
H1283       H  0.85045448  0.85397808  0.33582609     0.06880
H1284       H  0.71750355  0.87976255  0.40882319     0.06910
N1285       N  0.69909176  0.68468051  0.55198218    -0.26070
N1286       N  0.76399360  0.69710529  0.35319350    -0.25680
N1287       N  0.88394043  0.95173372  0.43652990     0.01350
C1288       C  0.75561102  0.84492606  0.50209224     0.42750
C1289       C  0.96963279  0.69630681  0.24922395    -0.06940
N1290       N  0.72276133  0.94726920  0.42848488    -0.25680
H1291       H  0.78830186  0.69480895  0.26592489     0.06900
N1292       N  0.70777294  0.81544768  0.49703478    -0.46910
H1293       H  0.94332956  0.70697867  0.24302355     0.06880
C1294       C  0.90988817  0.83407631  0.33286953     0.42580
C1295       C  0.93756834  0.76965914  0.39581331    -0.06430
Co1296     Co  0.92294431  0.97054153  0.35752321     0.73820
N1297       N  0.70741798  0.70014411  0.25647962    -0.46620
C1298       C  0.97946274  0.95526364  0.59942524     0.42850
N1299       N  0.84055106  0.91600618  0.44666538    -0.46610
Co1300     Co  0.69764005  0.96847215  0.35315983     0.73890
C1301       C  0.72785865  0.90932357  0.43983564    -0.06940
C1302       C  0.77785109  0.81554692  0.49382525    -0.06500
N1303       N  0.90151439  0.98189824  0.48256103    -0.26030
N1304       N  0.82502607  0.76294831  0.38905436    -0.46790
H1305       H  0.72248530  0.97260818  0.59312246     0.06860
C1306       C  0.88766624  0.86345005  0.34142225    -0.06920
Cl1307     Cl  0.99942185  0.67283070  0.41785353    -0.49920
C1308       C  0.68640074  0.72451525  0.23724773     0.42610
H1309       H  0.87690321  0.98436291  0.56961128     0.06820
N1310       N  0.95773561  0.86355456  0.33800970    -0.46630
C1311       C  0.64658316  0.88696400  0.64189877    -0.21300
C1312       C  0.95313618  0.90390380  0.61014491    -0.09340
C1313       C  0.90557634  0.55249306  0.62779978     0.29510
C1314       C  0.89742356  0.54403214  0.68921463    -0.21300
C1315       C  0.93854441  0.89134112  0.72610150    -0.09360
C1316       C  0.63721360  0.87817940  0.70305943     0.29520
F1317       F  0.66901110  0.87400470  0.74015957    -0.19880
H1318       H  0.68006026  0.89191294  0.62551301     0.17890
H1319       H  0.86546621  0.54166629  0.70736356     0.17890
F1320       F  0.87295486  0.55645648  0.59230249    -0.19870
C1321       C  0.76664046  0.79862358  0.14576221    -0.21300
C1322       C  0.72490214  0.78386228  0.10974846    -0.09340
C1323       C  0.02671854  0.79793394  0.13217420     0.29510
C1324       C  0.01912852  0.79224614  0.19405109    -0.21300
C1325       C  0.71277328  0.77592792  0.22651860    -0.09360
C1326       C  0.75992528  0.79330682  0.20781131     0.29520
F1327       F  0.79328178  0.79103171  0.24388322    -0.19880
H1328       H  0.79800370  0.79973472  0.12752023     0.17890
H1329       H  0.98627958  0.78845838  0.21110553     0.17890
F1330       F  0.99394349  0.80046595  0.09509434    -0.19870
C1331       C  0.75639994  0.85093733  0.63261282    -0.21300
C1332       C  0.77752291  0.89417352  0.60086925    -0.09340
C1333       C  0.79638182  0.93541475  0.63887545     0.29510
C1334       C  0.79740349  0.93315429  0.70273119    -0.21300
C1335       C  0.77427474  0.89013546  0.73438276    -0.09360
C1336       C  0.75361792  0.84866190  0.69632487     0.29520
F1337       F  0.73042032  0.80465707  0.71914505    -0.19880
H1338       H  0.74064908  0.81731024  0.60861841     0.17890
H1339       H  0.81648675  0.96649768  0.72715090     0.17890
F1340       F  0.81289582  0.97895792  0.61573844    -0.19870
C1341       C  0.86695105  0.74400668  0.13324087    -0.21300
C1342       C  0.88983640  0.78671153  0.10100125    -0.09340
C1343       C  0.91076712  0.82853128  0.13850081     0.29430
C1344       C  0.90841479  0.82684255  0.20226085    -0.21300
C1345       C  0.88749781  0.78392186  0.23458911    -0.09360
C1346       C  0.86843036  0.74233235  0.19713003     0.29520
F1347       F  0.85208706  0.69898265  0.22080472    -0.19880
H1348       H  0.84769226  0.71048234  0.10924863     0.17890
H1349       H  0.92431566  0.86065670  0.22583939     0.17890
F1350       F  0.93382430  0.87233808  0.11511550    -0.19870
loop_ 
_geom_bond_atom_site_label_1 
_geom_bond_atom_site_label_2 
_geom_bond_distance 
_geom_bond_site_symmetry_2 
_ccdc_geom_bond_type 
C1           C35   1.526   1_554  S
C1          C142   1.606       .  S
C1           C25   1.523       .  S
C1           C55   1.537       .  S
C2           C66   1.536       .  S
C2          C145   1.606       .  S
C2           C58   1.528       .  S
C2           C94   1.525       .  S
C3           C13   1.525       .  S
C3          C135   1.607       .  S
C3           C41   1.526       .  S
C3           C45   1.537       .  S
C4           C88   1.523       .  S
C4          C132   1.606       .  S
C4           C73   1.529       .  S
C4           C78   1.537       .  S
C5           C42   1.441       .  S
C5          C122   1.482       .  S
C5          N923   1.335   1_455  A
N6          Co43   2.066   1_554  S
N6          N173   1.321       .  A
N6          N478   1.324       .  A
C7           C45   1.460       .  S
C7           N32   1.335       .  A
C7           H52   1.075       .  S
H8           C49   1.081       .  S
C9           C13   1.465       .  S
C9           N33   1.340       .  A
C9           H38   1.082   1_455  S
Co10         N28   2.083   1_556  S
Co10         N26   2.100       .  S
Co10        N168   2.091       .  S
Co10        N950   2.079   1_455  S
Co10      Cl1104   2.478   1_455  S
N11          C49   1.348       .  A
N11         Co12   2.098       .  S
N11          N18   1.317       .  A
Co12         N15   2.089       .  S
Co12         N19   2.066       .  S
Co12        N332   2.086   1_545  S
Co12       Cl954   2.430   1_455  S
C13          N51   1.353       .  A
N14         Co47   2.100       .  S
N14          N21   1.314       .  A
N14          N44   1.330       .  A
N15          N33   1.320       .  A
N15          N51   1.326       .  A
N16          C45   1.368       .  A
N16          N26   1.330       .  A
H17          C42   1.068       .  S
N18        Co310   2.091   1_545  S
N18          N39   1.321   1_556  A
N19          N24   1.321   1_545  A
N19         N937   1.324   1_455  A
C20         C115   1.484       .  S
C20         C198   1.441       .  S
C20         N624   1.335       .  A
N21          C36   1.336   1_556  A
N21        Co343   2.088   1_545  S
C22          C25   1.464   1_556  S
C22          N50   1.340       .  A
C22          H56   1.082   1_556  S
N23         C455   1.335       .  A
N23         N306   1.321       .  A
N24        C1220   1.335   1_455  A
C25          N46   1.353   1_554  A
N26          N32   1.314       .  A
N27          C53   1.348       .  A
N27         Co43   2.097       .  S
N27          N29   1.317       .  A
N28         C192   1.342       .  A
N28         N906   1.324   1_455  A
N29        Co197   2.090       .  S
N29          N57   1.321       .  A
H30          C53   1.081       .  S
H31         C198   1.067       .  S
N32        Co162   2.086       .  S
N33        Co947   2.081   1_455  S
N34         Co43   2.088       .  S
N34          N46   1.325       .  A
N34          N50   1.320       .  A
C35          C49   1.483       .  S
C35          N39   1.343   1_556  A
C36          C55   1.460       .  S
C36          H40   1.075       .  S
N37          C48   1.343   1_545  A
N37         Co47   2.084       .  S
N37         N469   1.324       .  A
C41          C53   1.483       .  S
C41          N57   1.342       .  A
C42         N328   1.342   1_545  A
Co43        N171   2.088       .  S
Co43       Cl204   2.430       .  S
N44          C55   1.368   1_556  A
Co47        N329   2.090   1_545  S
Co47        N483   2.081       .  S
Co47        Cl54   2.477       .  S
C48         C320   1.441       .  S
C48         H331   1.067       .  S
N50        Co460   2.079       .  S
Cl54       Co760   2.478   1_545  S
Cl54       Co462   2.430       .  S
Cl54       Co343   2.430   1_545  S
C58          C95   1.483       .  S
C58          N76   1.343       .  A
N59        Co396   2.093   1_545  S
N59          N76   1.321       .  A
N59          N81   1.317       .  A
C60        C1298   1.441   1_455  S
C60          N85   1.339   1_565  A
C60         H405   1.069       .  S
H61         C102   1.082       .  S
C62          C66   1.460       .  S
C62          N86   1.337       .  A
C62          H91   1.074       .  S
Co63         N81   2.096       .  S
Co63         N79   2.065       .  S
Co63        N521   2.085       .  S
Co63        N403   2.088   1_545  S
Co63       Cl107   2.430       .  S
N64         C102   1.339       .  A
N64         Co65   2.077       .  S
N64          N71   1.320       .  A
Co65         N68   2.099       .  S
Co65         N85   2.079       .  S
Co65        N372   2.094   1_545  S
Co65      Cl1007   2.478   1_455  S
C66         N104   1.367       .  A
N67        Co100   2.066       .  S
N67         N974   1.324   1_455  A
N67         N247   1.320       .  A
N68          N86   1.314       .  A
N68         N104   1.329       .  A
N69         C398   1.336       .  A
N69          N79   1.320   1_565  A
H70          C95   1.081       .  S
N71        Co963   2.085   1_455  S
N71          N92   1.324       .  A
N72        Co215   2.094       .  S
N72          N90   1.317       .  A
N72          N77   1.322       .  A
C73         C101   1.483       .  S
C73          N77   1.343       .  A
N74         C239   1.340       .  A
N74         Co96   2.080       .  S
N74         N517   1.324       .  A
C75          C78   1.461       .  S
C75         N103   1.337       .  A
C75         H109   1.074       .  S
C78          N99   1.367       .  A
N79         N535   1.323       .  A
N80         C106   1.339       .  A
N80         Co96   2.078       .  S
N80          N82   1.320       .  A
N81          C95   1.347       .  A
N82        Co550   2.086       .  S
N82         N110   1.325       .  A
H83         C106   1.082       .  S
H84         C101   1.081       .  S
N85         N979   1.323   1_455  A
N86        Co400   2.087   1_545  S
N87         Co96   2.100       .  S
N87          N99   1.329       .  A
N87         N103   1.314       .  A
C88         C102   1.464       .  S
C88          N92   1.352       .  A
C89         C558   1.441       .  S
C89         N374   1.340   1_545  A
C89          H93   1.068       .  S
N90         C101   1.347       .  A
N90        Co100   2.097       .  S
C94         C106   1.465       .  S
C94         N110   1.352       .  A
Co96        N209   2.093       .  S
Co96       Cl257   2.478       .  S
N97         C108   1.336       .  A
N97         N367   1.320   1_545  A
C98         C112   1.476       .  S
C98         C660   1.441       .  S
C98         N219   1.336       .  A
Co100       N982   2.086   1_455  S
Co100       N236   2.087       .  S
Co100     Cl1157   2.430   1_455  S
N103       Co213   2.088       .  S
H105        C210   1.069       .  S
Cl107      Co515   2.478       .  S
Cl107      Co396   2.478   1_545  S
Cl107      Co850   2.430   1_545  S
C108        C125   1.477       .  S
C108        C989   1.441   1_455  S
C111        H118   1.083   1_655  S
C111        C116   1.399       .  A
C111       C1012   1.407       .  A
C112        C561   1.407       .  A
C112        C263   1.411       .  A
C113        C114   1.398       .  A
C113        C412   1.411       .  A
C113        F120   1.350       .  S
C114        H119   1.084       .  S
C114        C415   1.400       .  A
C115        C264   1.400       .  A
C115        C566   1.405       .  A
C116       C1015   1.405       .  A
C116        F117   1.352   1_655  S
C121        H128   1.084       .  S
C121        C122   1.401       .  A
C121        C126   1.398       .  A
C122       C1023   1.406       .  A
C123        C124   1.398       .  A
C123        C572   1.406       .  A
C123        F130   1.352       .  S
C124        H129   1.083       .  S
C124        C575   1.405       .  A
C125        C126   1.410       .  A
C125       C1024   1.405       .  A
C126        F127   1.350       .  S
C131        H138   1.078       .  S
C131        C132   1.424       .  A
C131        C136   1.418       .  A
C132        C133   1.423       .  A
C133        C134   1.418       .  A
C133        F140   1.352       .  S
C134        H139   1.076       .  S
C134        C135   1.419       .  A
C135        C136   1.427       .  A
C136        F137   1.354       .  S
C141        H148   1.076       .  S
C141        C142   1.418       .  A
C141        C146   1.418       .  A
C142        C143   1.428       .  A
C143        C144   1.418       .  A
C143        F150   1.354       .  S
C144        H149   1.079       .  S
C144        C145   1.423       .  A
C145        C146   1.424       .  A
C146        F147   1.352       .  S
C151        C185   1.526   1_554  S
C151        C292   1.606       .  S
C151        C175   1.523       .  S
C151        C205   1.537       .  S
C152        C216   1.536       .  S
C152        C295   1.606       .  S
C152        C208   1.528       .  S
C152        C244   1.525       .  S
C153        C163   1.525       .  S
C153        C285   1.607       .  S
C153        C191   1.526       .  S
C153        C195   1.537       .  S
C154        C238   1.523       .  S
C154        C282   1.606       .  S
C154        C223   1.529       .  S
C154        C228   1.537       .  S
C155        C192   1.441       .  S
C155        C272   1.482       .  S
C155       N1073   1.335   1_455  A
N156       Co193   2.066   1_554  S
N156        N323   1.321       .  A
N156        N628   1.324       .  A
C157        C195   1.460       .  S
C157        N182   1.335       .  A
C157        H202   1.075       .  S
H158        C199   1.081       .  S
C159        C163   1.465       .  S
C159        N183   1.340       .  A
C159        H188   1.082   1_455  S
Co160       N178   2.083   1_556  S
Co160       N318   2.091       .  S
Co160      N1100   2.079   1_455  S
Co160       N176   2.100       .  S
Co160     Cl1254   2.478   1_455  S
N161        C199   1.348       .  A
N161       Co162   2.098       .  S
N161        N168   1.317       .  A
Co162       N165   2.089       .  S
Co162       N169   2.066       .  S
Co162     Cl1104   2.430   1_455  S
C163        N201   1.353       .  A
N164       Co197   2.100       .  S
N164        N171   1.314       .  A
N164        N194   1.330       .  A
N165        N183   1.320       .  A
N165        N201   1.326       .  A
N166        C195   1.368       .  A
N166        N176   1.330       .  A
H167        C192   1.068       .  S
N168        N189   1.321   1_556  A
N169       N1087   1.324   1_455  A
N169        N174   1.321       .  A
C170        C348   1.441       .  S
C170        C265   1.484       .  S
C170        N774   1.335       .  A
N171        C186   1.336   1_556  A
C172        C175   1.464   1_556  S
C172        N200   1.340       .  A
C172        H206   1.082   1_556  S
N173        C605   1.335       .  A
N174        C920   1.335   1_455  A
C175        N196   1.353   1_554  A
N176        N182   1.314       .  A
N177        C203   1.348       .  A
N177       Co193   2.097       .  S
N177        N179   1.317       .  A
N178        C342   1.342       .  A
N178       N1056   1.324   1_455  A
N179       Co347   2.090       .  S
N179        N207   1.321       .  A
H180        C203   1.081       .  S
H181        C348   1.067       .  S
N182       Co312   2.086       .  S
N183      Co1097   2.081   1_455  S
N184       Co193   2.088       .  S
N184        N196   1.325       .  A
N184        N200   1.320       .  A
C185        C199   1.483       .  S
C185        N189   1.343   1_556  A
C186        C205   1.460       .  S
C186        H190   1.075       .  S
N187        C198   1.343       .  A
N187       Co197   2.084       .  S
N187        N619   1.324       .  A
C191        C203   1.483       .  S
C191        N207   1.342       .  A
Co193       N321   2.088       .  S
Co193      Cl354   2.430       .  S
N194        C205   1.368   1_556  A
Co197       N633   2.081       .  S
Co197      Cl204   2.477       .  S
N200       Co610   2.079       .  S
Cl204      Co460   2.478       .  S
Cl204      Co612   2.430       .  S
C208        C245   1.483       .  S
C208        N226   1.343       .  A
N209        N226   1.321       .  A
N209        N231   1.317       .  A
C210        C998   1.441   1_455  S
C210        N235   1.339       .  A
H211        C252   1.082       .  S
C212        C216   1.460       .  S
C212        N236   1.337       .  A
C212        H241   1.074       .  S
Co213       N231   2.096       .  S
Co213       N671   2.085       .  S
Co213       N229   2.065       .  S
Co213      Cl257   2.430       .  S
N214        C252   1.339       .  A
N214       Co215   2.077       .  S
N214        N221   1.320       .  A
Co215       N218   2.099       .  S
Co215       N235   2.079       .  S
Co215     Cl1157   2.478   1_455  S
C216        N254   1.367       .  A
N217       Co250   2.066       .  S
N217       N1124   1.324   1_455  A
N217        N397   1.320       .  A
N218        N236   1.314       .  A
N218        N254   1.329       .  A
N219        N229   1.320       .  A
H220        C245   1.081       .  S
N221      Co1113   2.085   1_455  S
N221        N242   1.324       .  A
N222       Co365   2.094       .  S
N222        N240   1.317       .  A
N222        N227   1.322       .  A
C223        C251   1.483       .  S
C223        N227   1.343       .  A
N224        C389   1.340       .  A
N224       Co246   2.080       .  S
N224        N667   1.324       .  A
C225        C228   1.461       .  S
C225        N253   1.337       .  A
C225        H259   1.074       .  S
C228        N249   1.367       .  A
N229        N685   1.323       .  A
N230        C256   1.339       .  A
N230       Co246   2.078       .  S
N230        N232   1.320       .  A
N231        C245   1.347       .  A
N232       Co700   2.086       .  S
N232        N260   1.325       .  A
H233        C256   1.082       .  S
H234        C251   1.081       .  S
N235       N1129   1.323   1_455  A
N237       Co246   2.100       .  S
N237        N249   1.329       .  A
N237        N253   1.314       .  A
C238        C252   1.464       .  S
C238        N242   1.352       .  A
C239        C708   1.441       .  S
C239        H243   1.068       .  S
N240        C251   1.347       .  A
N240       Co250   2.097       .  S
C244        C256   1.465       .  S
C244        N260   1.352       .  A
Co246       N359   2.093       .  S
Co246      Cl407   2.478       .  S
N247        C258   1.336       .  A
C248        C810   1.441       .  S
C248        C262   1.476       .  S
C248        N369   1.336       .  A
Co250      N1132   2.086   1_455  S
Co250       N386   2.087       .  S
Co250     Cl1307   2.430   1_455  S
N253       Co363   2.088       .  S
H255        C360   1.069       .  S
Cl257      Co665   2.478       .  S
Cl257      Co550   2.430       .  S
C258       C1139   1.441   1_455  S
C258        C275   1.477       .  S
C261        H268   1.083   1_655  S
C261       C1162   1.407       .  A
C261        C266   1.399       .  A
C262        C711   1.407       .  A
C262        C413   1.411       .  A
C263        C264   1.398       .  A
C263        F270   1.350       .  S
C264        H269   1.084       .  S
C265        C414   1.400       .  A
C265        C716   1.405       .  A
C266       C1165   1.405       .  A
C266        F267   1.352   1_655  S
C271        H278   1.084       .  S
C271        C272   1.401       .  A
C271        C276   1.398       .  A
C272       C1173   1.406       .  A
C273        C722   1.406       .  A
C273        C274   1.398       .  A
C273        F280   1.352       .  S
C274        H279   1.083       .  S
C274        C725   1.405       .  A
C275       C1174   1.405       .  A
C275        C276   1.410       .  A
C276        F277   1.350       .  S
C281        H288   1.078       .  S
C281        C282   1.424       .  A
C281        C286   1.418       .  A
C282        C283   1.423       .  A
C283        C284   1.418       .  A
C283        F290   1.352       .  S
C284        H289   1.076       .  S
C284        C285   1.419       .  A
C285        C286   1.427       .  A
C286        F287   1.354       .  S
C291        H298   1.076       .  S
C291        C292   1.418       .  A
C291        C296   1.418       .  A
C292        C293   1.428       .  A
C293        C294   1.418       .  A
C293        F300   1.354       .  S
C294        H299   1.079       .  S
C294        C295   1.423       .  A
C295        C296   1.424       .  A
C296        F297   1.352       .  S
C301        C335   1.526   1_554  S
C301        C442   1.606       .  S
C301        C325   1.523       .  S
C301        C355   1.537       .  S
C302        C366   1.536       .  S
C302        C445   1.606       .  S
C302        C358   1.528       .  S
C302        C394   1.525       .  S
C303        C313   1.525       .  S
C303        C435   1.607       .  S
C303        C341   1.526       .  S
C303        C345   1.537       .  S
C304        C388   1.523       .  S
C304        C432   1.606       .  S
C304        C373   1.529       .  S
C304        C378   1.537       .  S
C305        C342   1.441       .  S
C305        C422   1.482       .  S
C305       N1223   1.335   1_455  A
N306       Co343   2.066   1_544  S
N306        N778   1.324   1_545  A
C307        C345   1.460       .  S
C307        N332   1.335       .  A
C307        H352   1.075       .  S
H308        C349   1.081       .  S
C309        C313   1.465       .  S
C309        N333   1.340       .  A
C309        H338   1.082   1_455  S
Co310       N328   2.083   1_556  S
Co310      N1250   2.079   1_455  S
Co310       N326   2.100       .  S
Co310      Cl954   2.478   1_465  S
N311        C349   1.348       .  A
N311       Co312   2.098       .  S
N311        N318   1.317       .  A
Co312       N315   2.089       .  S
Co312       N319   2.066       .  S
Co312     Cl1254   2.430   1_455  S
C313        N351   1.353       .  A
N314       Co347   2.100       .  S
N314        N321   1.314       .  A
N314        N344   1.330       .  A
N315        N333   1.320       .  A
N315        N351   1.326       .  A
N316        C345   1.368       .  A
N316        N326   1.330       .  A
H317        C342   1.068       .  S
N318        N339   1.321   1_556  A
N319       N1237   1.324   1_455  A
N319        N324   1.321       .  A
C320        C415   1.484       .  S
C320        N474   1.335       .  A
N321        C336   1.336   1_556  A
C322        C325   1.464   1_556  S
C322        N350   1.340       .  A
C322        H356   1.082   1_556  S
N323        C755   1.335       .  A
N324       C1070   1.335   1_455  A
C325        N346   1.353   1_554  A
N326        N332   1.314       .  A
N327        C353   1.348       .  A
N327       Co343   2.097       .  S
N327        N329   1.317       .  A
N328       N1206   1.324   1_465  A
N329        N357   1.321       .  A
H330        C353   1.081       .  S
N333      Co1247   2.081   1_455  S
N334       Co343   2.088       .  S
N334        N346   1.325       .  A
N334        N350   1.320       .  A
C335        C349   1.483       .  S
C335        N339   1.343   1_556  A
C336        C355   1.460       .  S
C336        H340   1.075       .  S
N337        C348   1.343       .  A
N337       Co347   2.084       .  S
N337        N769   1.324       .  A
C341        C353   1.483       .  S
C341        N357   1.342       .  A
N344        C355   1.368   1_556  A
Co347       N783   2.081       .  S
Co347      Cl354   2.477       .  S
N350       Co760   2.079       .  S
Cl354      Co610   2.478       .  S
Cl354      Co762   2.430       .  S
C358        C395   1.483       .  S
C358        N376   1.343       .  A
N359        N376   1.321       .  A
N359        N381   1.317       .  A
C360       C1148   1.441   1_455  S
C360        N385   1.339       .  A
H361        C402   1.082       .  S
C362        C366   1.460       .  S
C362        N386   1.337       .  A
C362        H391   1.074       .  S
Co363       N381   2.096       .  S
Co363       N821   2.085       .  S
Co363       N379   2.065       .  S
Co363      Cl407   2.430       .  S
N364        C402   1.339       .  A
N364       Co365   2.077       .  S
N364        N371   1.320       .  A
Co365       N368   2.099       .  S
Co365       N385   2.079       .  S
Co365     Cl1307   2.478   1_455  S
C366        N404   1.367       .  A
N367       Co400   2.066       .  S
N367       N1274   1.324   1_455  A
N368        N386   1.314       .  A
N368        N404   1.329       .  A
N369        N379   1.320       .  A
H370        C395   1.081       .  S
N371      Co1263   2.085   1_455  S
N371        N392   1.324       .  A
N372        N390   1.317       .  A
N372        N377   1.322       .  A
C373        C401   1.483       .  S
C373        N377   1.343       .  A
N374       Co396   2.080       .  S
N374        N817   1.324       .  A
C375        C378   1.461       .  S
C375        N403   1.337       .  A
C375        H409   1.074       .  S
C378        N399   1.367       .  A
N379        N835   1.323       .  A
N380        C406   1.339       .  A
N380       Co396   2.078       .  S
N380        N382   1.320       .  A
N381        C395   1.347       .  A
N382       Co850   2.086       .  S
N382        N410   1.325       .  A
H383        C406   1.082       .  S
H384        C401   1.081       .  S
N385       N1279   1.323   1_455  A
N387       Co396   2.100       .  S
N387        N399   1.329       .  A
N387        N403   1.314       .  A
C388        C402   1.464       .  S
C388        N392   1.352       .  A
C389        C858   1.441       .  S
C389        H393   1.068       .  S
N390        C401   1.347       .  A
N390       Co400   2.097       .  S
C394        C406   1.465       .  S
C394        N410   1.352       .  A
N397        C408   1.336       .  A
C398        C510   1.441       .  S
C398        C412   1.476       .  S
Co400      N1282   2.086   1_455  S
Co400     Cl1007   2.430   1_465  S
Cl407      Co815   2.478       .  S
Cl407      Co700   2.430       .  S
C408       C1289   1.441   1_455  S
C408        C425   1.477       .  S
C411        H418   1.083   1_655  S
C411       C1312   1.407       .  A
C411        C416   1.399       .  A
C412        C861   1.407       .  A
C413        C414   1.398       .  A
C413        F420   1.350       .  S
C414        H419   1.084       .  S
C415        C866   1.405       .  A
C416       C1315   1.405       .  A
C416        F417   1.352   1_655  S
C421        H428   1.084       .  S
C421        C422   1.401       .  A
C421        C426   1.398       .  A
C422       C1323   1.406       .  A
C423        C872   1.406       .  A
C423        C424   1.398       .  A
C423        F430   1.352       .  S
C424        H429   1.083       .  S
C424        C875   1.405       .  A
C425       C1324   1.405       .  A
C425        C426   1.410       .  A
C426        F427   1.350       .  S
C431        H438   1.078       .  S
C431        C432   1.424       .  A
C431        C436   1.418       .  A
C432        C433   1.423       .  A
C433        C434   1.418       .  A
C433        F440   1.352       .  S
C434        H439   1.076       .  S
C434        C435   1.419       .  A
C435        C436   1.427       .  A
C436        F437   1.354       .  S
C441        H448   1.076       .  S
C441        C442   1.418       .  A
C441        C446   1.418       .  A
C442        C443   1.428       .  A
C443        C444   1.418       .  A
C443        F450   1.354       .  S
C444        H449   1.079       .  S
C444        C445   1.423       .  A
C445        C446   1.424       .  A
C446        F447   1.352       .  S
C451        C485   1.526   1_554  S
C451        C592   1.606       .  S
C451        C475   1.523       .  S
C451        C505   1.537       .  S
C452        C516   1.536       .  S
C452        C595   1.606       .  S
C452        C508   1.528       .  S
C452        C544   1.525       .  S
C453        C463   1.525       .  S
C453        C585   1.607       .  S
C453        C491   1.526       .  S
C453        C495   1.537       .  S
C454        C538   1.523       .  S
C454        C582   1.606       .  S
C454        C523   1.529       .  S
C454        C528   1.537       .  S
C455        C492   1.441       .  S
C455        C572   1.482       .  S
N456       Co493   2.066   1_554  S
N456        N623   1.321       .  A
N456        N928   1.324       .  A
C457        C495   1.460       .  S
C457        N482   1.335       .  A
C457        H502   1.075       .  S
H458        C499   1.081       .  S
C459        C463   1.465       .  S
C459        N483   1.340       .  A
C459        H488   1.082       .  S
Co460       N478   2.083   1_556  S
Co460       N618   2.091       .  S
Co460       N476   2.100       .  S
N461        C499   1.348       .  A
N461       Co462   2.098       .  S
N461        N468   1.317       .  A
Co462       N465   2.089       .  S
Co462       N782   2.086   1_545  S
Co462       N469   2.066       .  S
C463        N501   1.353       .  A
N464       Co497   2.100       .  S
N464        N471   1.314       .  A
N464        N494   1.330       .  A
N465        N483   1.320       .  A
N465        N501   1.326       .  A
N466        C495   1.368       .  A
N466        N476   1.330       .  A
H467        C492   1.068       .  S
N468       Co760   2.091   1_545  S
N468        N489   1.321   1_556  A
N469        N474   1.321   1_545  A
C470        C648   1.441       .  S
C470        C565   1.484       .  S
C470       N1074   1.335       .  A
N471        C486   1.336   1_556  A
N471       Co793   2.088   1_545  S
C472        C475   1.464   1_556  S
C472        N500   1.340       .  A
C472        H506   1.082   1_556  S
N473        C905   1.335       .  A
N473        N756   1.321       .  A
C475        N496   1.353   1_554  A
N476        N482   1.314       .  A
N477        C503   1.348       .  A
N477       Co493   2.097       .  S
N477        N479   1.317       .  A
N478        C642   1.342       .  A
N479       Co647   2.090       .  S
N479        N507   1.321       .  A
H480        C503   1.081       .  S
H481        C648   1.067       .  S
N482       Co612   2.086       .  S
N484       Co493   2.088       .  S
N484        N496   1.325       .  A
N484        N500   1.320       .  A
C485        C499   1.483       .  S
C485        N489   1.343   1_556  A
C486        C505   1.460       .  S
C486        H490   1.075       .  S
N487        C498   1.343   1_545  A
N487       Co497   2.084       .  S
N487        N919   1.324       .  A
C491        C503   1.483       .  S
C491        N507   1.342       .  A
C492        N778   1.342   1_545  A
Co493       N621   2.088       .  S
Co493      Cl654   2.430       .  S
N494        C505   1.368   1_556  A
Co497       N779   2.090   1_545  S
Co497       N933   2.081       .  S
Co497      Cl504   2.477       .  S
C498        C770   1.441       .  S
C498        H781   1.067       .  S
N500       Co910   2.079       .  S
Cl504     Co1210   2.478   1_545  S
Cl504      Co912   2.430       .  S
Cl504      Co793   2.430   1_545  S
C508        C545   1.483       .  S
C508        N526   1.343       .  A
N509       Co846   2.093   1_545  S
N509        N526   1.321       .  A
N509        N531   1.317       .  A
C510        N535   1.339   1_565  A
C510        H855   1.069       .  S
H511        C552   1.082       .  S
C512        C516   1.460       .  S
C512        N536   1.337       .  A
C512        H541   1.074       .  S
Co513       N531   2.096       .  S
Co513       N971   2.085       .  S
Co513       N853   2.088   1_545  S
Co513       N529   2.065       .  S
Co513      Cl557   2.430       .  S
N514        C552   1.339       .  A
N514       Co515   2.077       .  S
N514        N521   1.320       .  A
Co515       N518   2.099       .  S
Co515       N535   2.079       .  S
Co515       N822   2.094   1_545  S
C516        N554   1.367       .  A
N517       Co550   2.066       .  S
N517        N697   1.320       .  A
N518        N536   1.314       .  A
N518        N554   1.329       .  A
N519        C848   1.336       .  A
N519        N529   1.320   1_565  A
H520        C545   1.081       .  S
N521        N542   1.324       .  A
N522       Co665   2.094       .  S
N522        N540   1.317       .  A
N522        N527   1.322       .  A
C523        C551   1.483       .  S
C523        N527   1.343       .  A
N524        C689   1.340       .  A
N524       Co546   2.080       .  S
N524        N967   1.324       .  A
C525        C528   1.461       .  S
C525        N553   1.337       .  A
C525        H559   1.074       .  S
C528        N549   1.367       .  A
N529        N985   1.323       .  A
N530        C556   1.339       .  A
N530       Co546   2.078       .  S
N530        N532   1.320       .  A
N531        C545   1.347       .  A
N532      Co1000   2.086       .  S
N532        N560   1.325       .  A
H533        C556   1.082       .  S
H534        C551   1.081       .  S
N536       Co850   2.087   1_545  S
N537       Co546   2.100       .  S
N537        N549   1.329       .  A
N537        N553   1.314       .  A
C538        C552   1.464       .  S
C538        N542   1.352       .  A
C539       C1008   1.441       .  S
C539        N824   1.340   1_545  A
C539        H543   1.068       .  S
N540        C551   1.347       .  A
N540       Co550   2.097       .  S
C544        C556   1.465       .  S
C544        N560   1.352       .  A
Co546       N659   2.093       .  S
Co546      Cl707   2.478       .  S
N547        C558   1.336       .  A
N547        N817   1.320   1_545  A
C548       C1110   1.441       .  S
C548        C562   1.476       .  S
C548        N669   1.336       .  A
Co550       N686   2.087       .  S
N553       Co663   2.088       .  S
H555        C660   1.069       .  S
Cl557      Co965   2.478       .  S
Cl557      Co846   2.478   1_545  S
Cl557     Co1300   2.430   1_545  S
C558        C575   1.477       .  S
C561        H568   1.083       .  S
C561        C566   1.399       .  A
C562       C1011   1.407       .  A
C562        C713   1.411       .  A
C563        C862   1.411       .  A
C563        C564   1.398       .  A
C563        F570   1.350       .  S
C564        H569   1.084       .  S
C564        C865   1.400       .  A
C565        C714   1.400       .  A
C565       C1016   1.405       .  A
C566        F567   1.352       .  S
C571        H578   1.084       .  S
C571        C572   1.401       .  A
C571        C576   1.398       .  A
C573       C1022   1.406       .  A
C573        C574   1.398       .  A
C573        F580   1.352       .  S
C574        H579   1.083       .  S
C574       C1025   1.405       .  A
C575        C576   1.410       .  A
C576        F577   1.350       .  S
C581        H588   1.078       .  S
C581        C582   1.424       .  A
C581        C586   1.418       .  A
C582        C583   1.423       .  A
C583        C584   1.418       .  A
C583        F590   1.352       .  S
C584        H589   1.076       .  S
C584        C585   1.419       .  A
C585        C586   1.427       .  A
C586        F587   1.354       .  S
C591        H598   1.076       .  S
C591        C592   1.418       .  A
C591        C596   1.418       .  A
C592        C593   1.428       .  A
C593        C594   1.418       .  A
C593        F600   1.354       .  S
C594        H599   1.079       .  S
C594        C595   1.423       .  A
C595        C596   1.424       .  A
C596        F597   1.352       .  S
C601        C635   1.526   1_554  S
C601        C742   1.606       .  S
C601        C625   1.523       .  S
C601        C655   1.537       .  S
C602        C666   1.536       .  S
C602        C745   1.606       .  S
C602        C658   1.528       .  S
C602        C694   1.525       .  S
C603        C613   1.525       .  S
C603        C735   1.607       .  S
C603        C641   1.526       .  S
C603        C645   1.537       .  S
C604        C688   1.523       .  S
C604        C732   1.606       .  S
C604        C673   1.529       .  S
C604        C678   1.537       .  S
C605        C642   1.441       .  S
C605        C722   1.482       .  S
N606       Co643   2.066   1_554  S
N606        N773   1.321       .  A
N606       N1078   1.324       .  A
C607        C645   1.460       .  S
C607        N632   1.335       .  A
C607        H652   1.075       .  S
H608        C649   1.081       .  S
C609        C613   1.465       .  S
C609        N633   1.340       .  A
C609        H638   1.082       .  S
Co610       N628   2.083   1_556  S
Co610       N768   2.091       .  S
Co610       N626   2.100       .  S
N611        C649   1.348       .  A
N611       Co612   2.098       .  S
N611        N618   1.317       .  A
Co612       N615   2.089       .  S
Co612       N619   2.066       .  S
C613        N651   1.353       .  A
N614       Co647   2.100       .  S
N614        N621   1.314       .  A
N614        N644   1.330       .  A
N615        N633   1.320       .  A
N615        N651   1.326       .  A
N616        C645   1.368       .  A
N616        N626   1.330       .  A
H617        C642   1.068       .  S
N618        N639   1.321   1_556  A
N619        N624   1.321       .  A
C620        C798   1.441       .  S
C620        C715   1.484       .  S
C620       N1224   1.335       .  A
N621        C636   1.336   1_556  A
C622        C625   1.464   1_556  S
C622        N650   1.340       .  A
C622        H656   1.082   1_556  S
N623       C1055   1.335       .  A
C625        N646   1.353   1_554  A
N626        N632   1.314       .  A
N627        C653   1.348       .  A
N627       Co643   2.097       .  S
N627        N629   1.317       .  A
N628        C792   1.342       .  A
N629       Co797   2.090       .  S
N629        N657   1.321       .  A
H630        C653   1.081       .  S
H631        C798   1.067       .  S
N632       Co762   2.086       .  S
N634       Co643   2.088       .  S
N634        N646   1.325       .  A
N634        N650   1.320       .  A
C635        C649   1.483       .  S
C635        N639   1.343   1_556  A
C636        C655   1.460       .  S
C636        H640   1.075       .  S
N637        C648   1.343       .  A
N637       Co647   2.084       .  S
N637       N1069   1.324       .  A
C641        C653   1.483       .  S
C641        N657   1.342       .  A
Co643       N771   2.088       .  S
Co643      Cl804   2.430       .  S
N644        C655   1.368   1_556  A
Co647      N1083   2.081       .  S
Co647      Cl654   2.477       .  S
N650      Co1060   2.079       .  S
Cl654      Co910   2.478       .  S
Cl654     Co1062   2.430       .  S
C658        C695   1.483       .  S
C658        N676   1.343       .  A
N659        N676   1.321       .  A
N659        N681   1.317       .  A
C660        N685   1.339       .  A
H661        C702   1.082       .  S
C662        C666   1.460       .  S
C662        N686   1.337       .  A
C662        H691   1.074       .  S
Co663       N681   2.096       .  S
Co663      N1121   2.085       .  S
Co663       N679   2.065       .  S
Co663      Cl707   2.430       .  S
N664        C702   1.339       .  A
N664       Co665   2.077       .  S
N664        N671   1.320       .  A
Co665       N668   2.099       .  S
Co665       N685   2.079       .  S
C666        N704   1.367       .  A
N667       Co700   2.066       .  S
N667        N847   1.320       .  A
N668        N686   1.314       .  A
N668        N704   1.329       .  A
N669        N679   1.320       .  A
H670        C695   1.081       .  S
N671        N692   1.324       .  A
N672       Co815   2.094       .  S
N672        N690   1.317       .  A
N672        N677   1.322       .  A
C673        C701   1.483       .  S
C673        N677   1.343       .  A
N674        C839   1.340       .  A
N674       Co696   2.080       .  S
N674       N1117   1.324       .  A
C675        C678   1.461       .  S
C675        N703   1.337       .  A
C675        H709   1.074       .  S
C678        N699   1.367       .  A
N679       N1135   1.323       .  A
N680        C706   1.339       .  A
N680       Co696   2.078       .  S
N680        N682   1.320       .  A
N681        C695   1.347       .  A
N682      Co1150   2.086       .  S
N682        N710   1.325       .  A
H683        C706   1.082       .  S
H684        C701   1.081       .  S
N687       Co696   2.100       .  S
N687        N699   1.329       .  A
N687        N703   1.314       .  A
C688        C702   1.464       .  S
C688        N692   1.352       .  A
C689       C1158   1.441       .  S
C689        H693   1.068       .  S
N690        C701   1.347       .  A
N690       Co700   2.097       .  S
C694        C706   1.465       .  S
C694        N710   1.352       .  A
Co696       N809   2.093       .  S
Co696      Cl857   2.478       .  S
N697        C708   1.336       .  A
C698       C1260   1.441       .  S
C698        C712   1.476       .  S
C698        N819   1.336       .  A
Co700       N836   2.087       .  S
N703       Co813   2.088       .  S
H705        C810   1.069       .  S
Cl707     Co1115   2.478       .  S
Cl707     Co1000   2.430       .  S
C708        C725   1.477       .  S
C711        H718   1.083       .  S
C711        C716   1.399       .  A
C712       C1161   1.407       .  A
C712        C863   1.411       .  A
C713        C714   1.398       .  A
C713        F720   1.350       .  S
C714        H719   1.084       .  S
C715        C864   1.400       .  A
C715       C1166   1.405       .  A
C716        F717   1.352       .  S
C721        H728   1.084       .  S
C721        C722   1.401       .  A
C721        C726   1.398       .  A
C723       C1172   1.406       .  A
C723        C724   1.398       .  A
C723        F730   1.352       .  S
C724        H729   1.083       .  S
C724       C1175   1.405       .  A
C725        C726   1.410       .  A
C726        F727   1.350       .  S
C731        H738   1.078       .  S
C731        C732   1.424       .  A
C731        C736   1.418       .  A
C732        C733   1.423       .  A
C733        C734   1.418       .  A
C733        F740   1.352       .  S
C734        H739   1.076       .  S
C734        C735   1.419       .  A
C735        C736   1.427       .  A
C736        F737   1.354       .  S
C741        H748   1.076       .  S
C741        C742   1.418       .  A
C741        C746   1.418       .  A
C742        C743   1.428       .  A
C743        C744   1.418       .  A
C743        F750   1.354       .  S
C744        H749   1.079       .  S
C744        C745   1.423       .  A
C745        C746   1.424       .  A
C746        F747   1.352       .  S
C751        C785   1.526   1_554  S
C751        C892   1.606       .  S
C751        C775   1.523       .  S
C751        C805   1.537       .  S
C752        C816   1.536       .  S
C752        C895   1.606       .  S
C752        C808   1.528       .  S
C752        C844   1.525       .  S
C753        C763   1.525       .  S
C753        C885   1.607       .  S
C753        C791   1.526       .  S
C753        C795   1.537       .  S
C754        C838   1.523       .  S
C754        C882   1.606       .  S
C754        C823   1.529       .  S
C754        C828   1.537       .  S
C755        C792   1.441       .  S
C755        C872   1.482       .  S
N756       Co793   2.066   1_544  S
N756       N1228   1.324   1_545  A
C757        C795   1.460       .  S
C757        N782   1.335       .  A
C757        H802   1.075       .  S
H758        C799   1.081       .  S
C759        C763   1.465       .  S
C759        N783   1.340       .  A
C759        H788   1.082       .  S
Co760       N778   2.083   1_556  S
Co760       N776   2.100       .  S
N761        C799   1.348       .  A
N761       Co762   2.098       .  S
N761        N768   1.317       .  A
Co762       N765   2.089       .  S
Co762       N769   2.066       .  S
C763        N801   1.353       .  A
N764       Co797   2.100       .  S
N764        N771   1.314       .  A
N764        N794   1.330       .  A
N765        N783   1.320       .  A
N765        N801   1.326       .  A
N766        C795   1.368       .  A
N766        N776   1.330       .  A
H767        C792   1.068       .  S
N768        N789   1.321   1_556  A
N769        N774   1.321       .  A
C770        C865   1.484       .  S
C770        N924   1.335       .  A
N771        C786   1.336   1_556  A
C772        C775   1.464   1_556  S
C772        N800   1.340       .  A
C772        H806   1.082   1_556  S
N773       C1205   1.335       .  A
C775        N796   1.353   1_554  A
N776        N782   1.314       .  A
N777        C803   1.348       .  A
N777       Co793   2.097       .  S
N777        N779   1.317       .  A
N779        N807   1.321       .  A
H780        C803   1.081       .  S
N784       Co793   2.088       .  S
N784        N796   1.325       .  A
N784        N800   1.320       .  A
C785        C799   1.483       .  S
C785        N789   1.343   1_556  A
C786        C805   1.460       .  S
C786        H790   1.075       .  S
N787        C798   1.343       .  A
N787       Co797   2.084       .  S
N787       N1219   1.324       .  A
C791        C803   1.483       .  S
C791        N807   1.342       .  A
N794        C805   1.368   1_556  A
Co797      N1233   2.081       .  S
Co797      Cl804   2.477       .  S
N800      Co1210   2.079       .  S
Cl804     Co1060   2.478       .  S
Cl804     Co1212   2.430       .  S
C808        C845   1.483       .  S
C808        N826   1.343       .  A
N809        N826   1.321       .  A
N809        N831   1.317       .  A
C810        N835   1.339       .  A
H811        C852   1.082       .  S
C812        C816   1.460       .  S
C812        N836   1.337       .  A
C812        H841   1.074       .  S
Co813       N831   2.096       .  S
Co813      N1271   2.085       .  S
Co813       N829   2.065       .  S
Co813      Cl857   2.430       .  S
N814        C852   1.339       .  A
N814       Co815   2.077       .  S
N814        N821   1.320       .  A
Co815       N818   2.099       .  S
Co815       N835   2.079       .  S
C816        N854   1.367       .  A
N817       Co850   2.066       .  S
N818        N836   1.314       .  A
N818        N854   1.329       .  A
N819        N829   1.320       .  A
H820        C845   1.081       .  S
N821        N842   1.324       .  A
N822        N840   1.317       .  A
N822        N827   1.322       .  A
C823        C851   1.483       .  S
C823        N827   1.343       .  A
N824       Co846   2.080       .  S
N824       N1267   1.324       .  A
C825        C828   1.461       .  S
C825        N853   1.337       .  A
C825        H859   1.074       .  S
C828        N849   1.367       .  A
N829       N1285   1.323       .  A
N830        C856   1.339       .  A
N830       Co846   2.078       .  S
N830        N832   1.320       .  A
N831        C845   1.347       .  A
N832      Co1300   2.086       .  S
N832        N860   1.325       .  A
H833        C856   1.082       .  S
H834        C851   1.081       .  S
N837       Co846   2.100       .  S
N837        N849   1.329       .  A
N837        N853   1.314       .  A
C838        C852   1.464       .  S
C838        N842   1.352       .  A
C839       C1308   1.441       .  S
C839        H843   1.068       .  S
N840        C851   1.347       .  A
N840       Co850   2.097       .  S
C844        C856   1.465       .  S
C844        N860   1.352       .  A
N847        C858   1.336       .  A
C848        C960   1.441       .  S
C848        C862   1.476       .  S
Cl857     Co1265   2.478       .  S
Cl857     Co1150   2.430       .  S
C858        C875   1.477       .  S
C861        H868   1.083       .  S
C861        C866   1.399       .  A
C862       C1311   1.407       .  A
C863        C864   1.398       .  A
C863        F870   1.350       .  S
C864        H869   1.084       .  S
C865       C1316   1.405       .  A
C866        F867   1.352       .  S
C871        H878   1.084       .  S
C871        C872   1.401       .  A
C871        C876   1.398       .  A
C873       C1322   1.406       .  A
C873        C874   1.398       .  A
C873        F880   1.352       .  S
C874        H879   1.083       .  S
C874       C1325   1.405       .  A
C875        C876   1.410       .  A
C876        F877   1.350       .  S
C881        H888   1.078       .  S
C881        C882   1.424       .  A
C881        C886   1.418       .  A
C882        C883   1.423       .  A
C883        C884   1.418       .  A
C883        F890   1.352       .  S
C884        H889   1.076       .  S
C884        C885   1.419       .  A
C885        C886   1.427       .  A
C886        F887   1.354       .  S
C891        H898   1.076       .  S
C891        C892   1.418       .  A
C891        C896   1.418       .  A
C892        C893   1.428       .  A
C893        C894   1.418       .  A
C893        F900   1.354       .  S
C894        H899   1.079       .  S
C894        C895   1.423       .  A
C895        C896   1.424       .  A
C896        F897   1.352       .  S
C901        C935   1.526   1_554  S
C901       C1042   1.606       .  S
C901        C925   1.523       .  S
C901        C955   1.537       .  S
C902        C966   1.536       .  S
C902       C1045   1.606       .  S
C902        C958   1.528       .  S
C902        C994   1.525       .  S
C903        C913   1.525       .  S
C903       C1035   1.607       .  S
C903        C941   1.526       .  S
C903        C945   1.537       .  S
C904        C988   1.523       .  S
C904       C1032   1.606       .  S
C904        C973   1.529       .  S
C904        C978   1.537       .  S
C905        C942   1.441       .  S
C905       C1022   1.482       .  S
N906       Co943   2.066   1_554  S
N906       N1073   1.321       .  A
C907        C945   1.460       .  S
C907        N932   1.335       .  A
C907        H952   1.075       .  S
H908        C949   1.081       .  S
C909        C913   1.465       .  S
C909        N933   1.340       .  A
C909        H938   1.082       .  S
Co910       N928   2.083   1_556  S
Co910      N1068   2.091       .  S
Co910       N926   2.100       .  S
N911        C949   1.348       .  A
N911       Co912   2.098       .  S
N911        N918   1.317       .  A
Co912       N915   2.089       .  S
Co912      N1232   2.086   1_545  S
Co912       N919   2.066       .  S
C913        N951   1.353       .  A
N914       Co947   2.100       .  S
N914        N921   1.314       .  A
N914        N944   1.330       .  A
N915        N933   1.320       .  A
N915        N951   1.326       .  A
N916        C945   1.368       .  A
N916        N926   1.330       .  A
H917        C942   1.068       .  S
N918      Co1210   2.091   1_545  S
N918        N939   1.321   1_556  A
N919        N924   1.321   1_545  A
C920       C1098   1.441       .  S
C920       C1015   1.484       .  S
N921        C936   1.336   1_556  A
N921      Co1243   2.088   1_545  S
C922        C925   1.464   1_556  S
C922        N950   1.340       .  A
C922        H956   1.082   1_556  S
N923       N1206   1.321       .  A
C925        N946   1.353   1_554  A
N926        N932   1.314       .  A
N927        C953   1.348       .  A
N927       Co943   2.097       .  S
N927        N929   1.317       .  A
N928       C1092   1.342       .  A
N929      Co1097   2.090       .  S
N929        N957   1.321       .  A
H930        C953   1.081       .  S
H931       C1098   1.067       .  S
N932      Co1062   2.086       .  S
N934       Co943   2.088       .  S
N934        N946   1.325       .  A
N934        N950   1.320       .  A
C935        C949   1.483       .  S
C935        N939   1.343   1_556  A
C936        C955   1.460       .  S
C936        H940   1.075       .  S
N937        C948   1.343   1_545  A
N937       Co947   2.084       .  S
C941        C953   1.483       .  S
C941        N957   1.342       .  A
C942       N1228   1.342   1_545  A
Co943      N1071   2.088       .  S
Co943     Cl1104   2.430       .  S
N944        C955   1.368   1_556  A
Co947      N1229   2.090   1_545  S
Co947      Cl954   2.477       .  S
C948       C1220   1.441       .  S
C948       H1231   1.067       .  S
Cl954     Co1243   2.430   1_545  S
C958        C995   1.483       .  S
C958        N976   1.343       .  A
N959      Co1296   2.093   1_545  S
N959        N976   1.321       .  A
N959        N981   1.317       .  A
C960        N985   1.339   1_565  A
C960       H1305   1.069       .  S
H961       C1002   1.082       .  S
C962        C966   1.460       .  S
C962        N986   1.337       .  A
C962        H991   1.074       .  S
Co963       N981   2.096       .  S
Co963      N1303   2.088   1_545  S
Co963       N979   2.065       .  S
Co963     Cl1007   2.430       .  S
N964       C1002   1.339       .  A
N964       Co965   2.077       .  S
N964        N971   1.320       .  A
Co965       N968   2.099       .  S
Co965       N985   2.079       .  S
Co965      N1272   2.094   1_545  S
C966       N1004   1.367       .  A
N967      Co1000   2.066       .  S
N967       N1147   1.320       .  A
N968        N986   1.314       .  A
N968       N1004   1.329       .  A
N969       C1298   1.336       .  A
N969        N979   1.320   1_565  A
H970        C995   1.081       .  S
N971        N992   1.324       .  A
N972      Co1115   2.094       .  S
N972        N990   1.317       .  A
N972        N977   1.322       .  A
C973       C1001   1.483       .  S
C973        N977   1.343       .  A
N974       C1139   1.340       .  A
N974       Co996   2.080       .  S
C975        C978   1.461       .  S
C975       N1003   1.337       .  A
C975       H1009   1.074       .  S
C978        N999   1.367       .  A
N980       C1006   1.339       .  A
N980       Co996   2.078       .  S
N980        N982   1.320       .  A
N981        C995   1.347       .  A
N982       N1010   1.325       .  A
H983       C1006   1.082       .  S
H984       C1001   1.081       .  S
N986      Co1300   2.087   1_545  S
N987       Co996   2.100       .  S
N987        N999   1.329       .  A
N987       N1003   1.314       .  A
C988       C1002   1.464       .  S
C988        N992   1.352       .  A
C989       N1274   1.340   1_545  A
C989        H993   1.068       .  S
N990       C1001   1.347       .  A
N990      Co1000   2.097       .  S
C994       C1006   1.465       .  S
C994       N1010   1.352       .  A
Co996      N1109   2.093       .  S
Co996     Cl1157   2.478       .  S
N997       C1008   1.336       .  A
N997       N1267   1.320   1_545  A
C998       C1012   1.476       .  S
C998       N1119   1.336       .  A
Co1000     N1136   2.087       .  S
N1003     Co1113   2.088       .  S
H1005      C1110   1.069       .  S
Cl1007    Co1296   2.478   1_545  S
C1008      C1025   1.477       .  S
C1011      H1018   1.083       .  S
C1011      C1016   1.399       .  A
C1012      C1163   1.411       .  A
C1013      C1312   1.411       .  A
C1013      C1014   1.398       .  A
C1013      F1020   1.350       .  S
C1014      H1019   1.084       .  S
C1014      C1315   1.400       .  A
C1015      C1164   1.400       .  A
C1016      F1017   1.352       .  S
C1021      H1028   1.084       .  S
C1021      C1022   1.401       .  A
C1021      C1026   1.398       .  A
C1023      C1024   1.398       .  A
C1023      F1030   1.352   1_455  S
C1024      H1029   1.083   1_455  S
C1025      C1026   1.410       .  A
C1026      F1027   1.350       .  S
C1031      H1038   1.078       .  S
C1031      C1032   1.424       .  A
C1031      C1036   1.418       .  A
C1032      C1033   1.423       .  A
C1033      C1034   1.418       .  A
C1033      F1040   1.352       .  S
C1034      H1039   1.076       .  S
C1034      C1035   1.419       .  A
C1035      C1036   1.427       .  A
C1036      F1037   1.354       .  S
C1041      H1048   1.076       .  S
C1041      C1042   1.418       .  A
C1041      C1046   1.418       .  A
C1042      C1043   1.428       .  A
C1043      C1044   1.418       .  A
C1043      F1050   1.354       .  S
C1044      H1049   1.079       .  S
C1044      C1045   1.423       .  A
C1045      C1046   1.424       .  A
C1046      F1047   1.352       .  S
C1051      C1085   1.526   1_554  S
C1051      C1192   1.606       .  S
C1051      C1075   1.523       .  S
C1051      C1105   1.537       .  S
C1052      C1116   1.536       .  S
C1052      C1195   1.606       .  S
C1052      C1108   1.528       .  S
C1052      C1144   1.525       .  S
C1053      C1063   1.525       .  S
C1053      C1185   1.607       .  S
C1053      C1091   1.526       .  S
C1053      C1095   1.537       .  S
C1054      C1138   1.523       .  S
C1054      C1182   1.606       .  S
C1054      C1123   1.529       .  S
C1054      C1128   1.537       .  S
C1055      C1092   1.441       .  S
C1055      C1172   1.482       .  S
N1056     Co1093   2.066   1_554  S
N1056      N1223   1.321       .  A
C1057      C1095   1.460       .  S
C1057      N1082   1.335       .  A
C1057      H1102   1.075       .  S
H1058      C1099   1.081       .  S
C1059      C1063   1.465       .  S
C1059      N1083   1.340       .  A
C1059      H1088   1.082       .  S
Co1060     N1078   2.083   1_556  S
Co1060     N1218   2.091       .  S
Co1060     N1076   2.100       .  S
N1061      C1099   1.348       .  A
N1061     Co1062   2.098       .  S
N1061      N1068   1.317       .  A
Co1062     N1065   2.089       .  S
Co1062     N1069   2.066       .  S
C1063      N1101   1.353       .  A
N1064     Co1097   2.100       .  S
N1064      N1071   1.314       .  A
N1064      N1094   1.330       .  A
N1065      N1083   1.320       .  A
N1065      N1101   1.326       .  A
N1066      C1095   1.368       .  A
N1066      N1076   1.330       .  A
H1067      C1092   1.068       .  S
N1068      N1089   1.321   1_556  A
N1069      N1074   1.321       .  A
C1070      C1248   1.441       .  S
C1070      C1165   1.484       .  S
N1071      C1086   1.336   1_556  A
C1072      C1075   1.464   1_556  S
C1072      N1100   1.340       .  A
C1072      H1106   1.082   1_556  S
C1075      N1096   1.353   1_554  A
N1076      N1082   1.314       .  A
N1077      C1103   1.348       .  A
N1077     Co1093   2.097       .  S
N1077      N1079   1.317       .  A
N1078      C1242   1.342       .  A
N1079     Co1247   2.090       .  S
N1079      N1107   1.321       .  A
H1080      C1103   1.081       .  S
H1081      C1248   1.067       .  S
N1082     Co1212   2.086       .  S
N1084     Co1093   2.088       .  S
N1084      N1096   1.325       .  A
N1084      N1100   1.320       .  A
C1085      C1099   1.483       .  S
C1085      N1089   1.343   1_556  A
C1086      C1105   1.460       .  S
C1086      H1090   1.075       .  S
N1087      C1098   1.343       .  A
N1087     Co1097   2.084       .  S
C1091      C1103   1.483       .  S
C1091      N1107   1.342       .  A
Co1093     N1221   2.088       .  S
Co1093    Cl1254   2.430       .  S
N1094      C1105   1.368   1_556  A
Co1097    Cl1104   2.477       .  S
C1108      C1145   1.483       .  S
C1108      N1126   1.343       .  A
N1109      N1126   1.321       .  A
N1109      N1131   1.317       .  A
C1110      N1135   1.339       .  A
H1111      C1152   1.082       .  S
C1112      C1116   1.460       .  S
C1112      N1136   1.337       .  A
C1112      H1141   1.074       .  S
Co1113     N1131   2.096       .  S
Co1113     N1129   2.065       .  S
Co1113    Cl1157   2.430       .  S
N1114      C1152   1.339       .  A
N1114     Co1115   2.077       .  S
N1114      N1121   1.320       .  A
Co1115     N1118   2.099       .  S
Co1115     N1135   2.079       .  S
C1116      N1154   1.367       .  A
N1117     Co1150   2.066       .  S
N1117      N1297   1.320       .  A
N1118      N1136   1.314       .  A
N1118      N1154   1.329       .  A
N1119      N1129   1.320       .  A
H1120      C1145   1.081       .  S
N1121      N1142   1.324       .  A
N1122     Co1265   2.094       .  S
N1122      N1140   1.317       .  A
N1122      N1127   1.322       .  A
C1123      C1151   1.483       .  S
C1123      N1127   1.343       .  A
N1124      C1289   1.340       .  A
N1124     Co1146   2.080       .  S
C1125      C1128   1.461       .  S
C1125      N1153   1.337       .  A
C1125      H1159   1.074       .  S
C1128      N1149   1.367       .  A
N1130      C1156   1.339       .  A
N1130     Co1146   2.078       .  S
N1130      N1132   1.320       .  A
N1131      C1145   1.347       .  A
N1132      N1160   1.325       .  A
H1133      C1156   1.082       .  S
H1134      C1151   1.081       .  S
N1137     Co1146   2.100       .  S
N1137      N1149   1.329       .  A
N1137      N1153   1.314       .  A
C1138      C1152   1.464       .  S
C1138      N1142   1.352       .  A
C1139      H1143   1.068       .  S
N1140      C1151   1.347       .  A
N1140     Co1150   2.097       .  S
C1144      C1156   1.465       .  S
C1144      N1160   1.352       .  A
Co1146     N1259   2.093       .  S
Co1146    Cl1307   2.478       .  S
N1147      C1158   1.336       .  A
C1148      C1162   1.476       .  S
C1148      N1269   1.336       .  A
Co1150     N1286   2.087       .  S
N1153     Co1263   2.088       .  S
H1155      C1260   1.069       .  S
C1158      C1175   1.477       .  S
C1161      H1168   1.083       .  S
C1161      C1166   1.399       .  A
C1162      C1313   1.411       .  A
C1163      C1164   1.398       .  A
C1163      F1170   1.350       .  S
C1164      H1169   1.084       .  S
C1165      C1314   1.400       .  A
C1166      F1167   1.352       .  S
C1171      H1178   1.084       .  S
C1171      C1172   1.401       .  A
C1171      C1176   1.398       .  A
C1173      C1174   1.398       .  A
C1173      F1180   1.352   1_455  S
C1174      H1179   1.083   1_455  S
C1175      C1176   1.410       .  A
C1176      F1177   1.350       .  S
C1181      H1188   1.078       .  S
C1181      C1182   1.424       .  A
C1181      C1186   1.418       .  A
C1182      C1183   1.423       .  A
C1183      C1184   1.418       .  A
C1183      F1190   1.352       .  S
C1184      H1189   1.076       .  S
C1184      C1185   1.419       .  A
C1185      C1186   1.427       .  A
C1186      F1187   1.354       .  S
C1191      H1198   1.076       .  S
C1191      C1192   1.418       .  A
C1191      C1196   1.418       .  A
C1192      C1193   1.428       .  A
C1193      C1194   1.418       .  A
C1193      F1200   1.354       .  S
C1194      H1199   1.079       .  S
C1194      C1195   1.423       .  A
C1195      C1196   1.424       .  A
C1196      F1197   1.352       .  S
C1201      C1235   1.526   1_554  S
C1201      C1342   1.606       .  S
C1201      C1225   1.523       .  S
C1201      C1255   1.537       .  S
C1202      C1266   1.536       .  S
C1202      C1345   1.606       .  S
C1202      C1258   1.528       .  S
C1202      C1294   1.525       .  S
C1203      C1213   1.525       .  S
C1203      C1335   1.607       .  S
C1203      C1241   1.526       .  S
C1203      C1245   1.537       .  S
C1204      C1288   1.523       .  S
C1204      C1332   1.606       .  S
C1204      C1273   1.529       .  S
C1204      C1278   1.537       .  S
C1205      C1242   1.441       .  S
C1205      C1322   1.482       .  S
N1206     Co1243   2.066   1_544  S
C1207      C1245   1.460       .  S
C1207      N1232   1.335       .  A
C1207      H1252   1.075       .  S
H1208      C1249   1.081       .  S
C1209      C1213   1.465       .  S
C1209      N1233   1.340       .  A
C1209      H1238   1.082       .  S
Co1210     N1228   2.083   1_556  S
Co1210     N1226   2.100       .  S
N1211      C1249   1.348       .  A
N1211     Co1212   2.098       .  S
N1211      N1218   1.317       .  A
Co1212     N1215   2.089       .  S
Co1212     N1219   2.066       .  S
C1213      N1251   1.353       .  A
N1214     Co1247   2.100       .  S
N1214      N1221   1.314       .  A
N1214      N1244   1.330       .  A
N1215      N1233   1.320       .  A
N1215      N1251   1.326       .  A
N1216      C1245   1.368       .  A
N1216      N1226   1.330       .  A
H1217      C1242   1.068       .  S
N1218      N1239   1.321   1_556  A
N1219      N1224   1.321       .  A
C1220      C1315   1.484       .  S
N1221      C1236   1.336   1_556  A
C1222      C1225   1.464   1_556  S
C1222      N1250   1.340       .  A
C1222      H1256   1.082   1_556  S
C1225      N1246   1.353   1_554  A
N1226      N1232   1.314       .  A
N1227      C1253   1.348       .  A
N1227     Co1243   2.097       .  S
N1227      N1229   1.317       .  A
N1229      N1257   1.321       .  A
H1230      C1253   1.081       .  S
N1234     Co1243   2.088       .  S
N1234      N1246   1.325       .  A
N1234      N1250   1.320       .  A
C1235      C1249   1.483       .  S
C1235      N1239   1.343   1_556  A
C1236      C1255   1.460       .  S
C1236      H1240   1.075       .  S
N1237      C1248   1.343       .  A
N1237     Co1247   2.084       .  S
C1241      C1253   1.483       .  S
C1241      N1257   1.342       .  A
N1244      C1255   1.368   1_556  A
Co1247    Cl1254   2.477       .  S
C1258      C1295   1.483       .  S
C1258      N1276   1.343       .  A
N1259      N1276   1.321       .  A
N1259      N1281   1.317       .  A
C1260      N1285   1.339       .  A
H1261      C1302   1.082       .  S
C1262      C1266   1.460       .  S
C1262      N1286   1.337       .  A
C1262      H1291   1.074       .  S
Co1263     N1281   2.096       .  S
Co1263     N1279   2.065       .  S
Co1263    Cl1307   2.430       .  S
N1264      C1302   1.339       .  A
N1264     Co1265   2.077       .  S
N1264      N1271   1.320       .  A
Co1265     N1268   2.099       .  S
Co1265     N1285   2.079       .  S
C1266      N1304   1.367       .  A
N1267     Co1300   2.066       .  S
N1268      N1286   1.314       .  A
N1268      N1304   1.329       .  A
N1269      N1279   1.320       .  A
H1270      C1295   1.081       .  S
N1271      N1292   1.324       .  A
N1272      N1290   1.317       .  A
N1272      N1277   1.322       .  A
C1273      C1301   1.483       .  S
C1273      N1277   1.343       .  A
N1274     Co1296   2.080       .  S
C1275      C1278   1.461       .  S
C1275      N1303   1.337       .  A
C1275      H1309   1.074       .  S
C1278      N1299   1.367       .  A
N1280      C1306   1.339       .  A
N1280     Co1296   2.078       .  S
N1280      N1282   1.320       .  A
N1281      C1295   1.347       .  A
N1282      N1310   1.325       .  A
H1283      C1306   1.082       .  S
H1284      C1301   1.081       .  S
N1287     Co1296   2.100       .  S
N1287      N1299   1.329       .  A
N1287      N1303   1.314       .  A
C1288      C1302   1.464       .  S
C1288      N1292   1.352       .  A
C1289      H1293   1.068       .  S
N1290      C1301   1.347       .  A
N1290     Co1300   2.097       .  S
C1294      C1306   1.465       .  S
C1294      N1310   1.352       .  A
N1297      C1308   1.336       .  A
C1298      C1312   1.476       .  S
C1308      C1325   1.477       .  S
C1311      H1318   1.083       .  S
C1311      C1316   1.399       .  A
C1313      C1314   1.398       .  A
C1313      F1320   1.350       .  S
C1314      H1319   1.084       .  S
C1316      F1317   1.352       .  S
C1321      H1328   1.084       .  S
C1321      C1322   1.401       .  A
C1321      C1326   1.398       .  A
C1323      C1324   1.398       .  A
C1323      F1330   1.352   1_455  S
C1324      H1329   1.083   1_455  S
C1325      C1326   1.410       .  A
C1326      F1327   1.350       .  S
C1331      H1338   1.078       .  S
C1331      C1332   1.424       .  A
C1331      C1336   1.418       .  A
C1332      C1333   1.423       .  A
C1333      C1334   1.418       .  A
C1333      F1340   1.352       .  S
C1334      H1339   1.076       .  S
C1334      C1335   1.419       .  A
C1335      C1336   1.427       .  A
C1336      F1337   1.354       .  S
C1341      H1348   1.076       .  S
C1341      C1342   1.418       .  A
C1341      C1346   1.418       .  A
C1342      C1343   1.428       .  A
C1343      C1344   1.418       .  A
C1343      F1350   1.354       .  S
C1344      H1349   1.079       .  S
C1344      C1345   1.423       .  A
C1345      C1346   1.424       .  A
C1346      F1347   1.352       .  S
