geometry optimzed in LAMMPS
_audit_creation_date              2020-11-30 
_audit_creation_method            'lammps2cif' 
_symmetry_space_group_name_H-M    'P1' 
_symmetry_Int_Tables_number       1 
_symmetry_cell_setting            triclinic 
loop_ 
_symmetry_equiv_pos_as_xyz 
  x,y,z 
_cell_length_a                    36.59188662 
_cell_length_b                    36.50539887614796 
_cell_length_c                    73.76749264549971 
_cell_angle_alpha                 89.73291357898194 
_cell_angle_beta                  90.14411531412085 
_cell_angle_gamma                 120.52271191857432 
loop_ 
_atom_site_label 
_atom_site_type_symbol 
_atom_site_fract_x 
_atom_site_fract_y 
_atom_site_fract_z 
_atom_site_charge 
C1          C  0.48409982  0.50773135  0.05654167     0.86600
C2          C  0.45432173  0.47342100  0.07005584    -0.53600
C3          C  0.47389292  0.45895800  0.08135518     0.09500
C4          C  0.52200910  0.47995114  0.07818002     0.20500
C5          C  0.51921763  0.54249042  0.06836257    -0.54400
C6          C  0.53872405  0.52810423  0.07981792     0.09600
C7          C  0.50724484  0.48793779  0.04678095    -0.53900
C8          C  0.52612395  0.47262911  0.05797513     0.10200
H9          H  0.42045991  0.46158438  0.07064207     0.14700
H10         H  0.53775662  0.46805806  0.08741470     0.00500
H11         H  0.52782622  0.57564823  0.06776720     0.15000
H12         H  0.51052467  0.48684660  0.03223662     0.14800
C13         C  0.05725754  0.51184219  0.06123546     0.86600
C14         C  0.04785112  0.54049716  0.07307991    -0.53600
C15         C  0.01182191  0.51903327  0.08328349     0.09500
C16         C  0.98851479  0.47025437  0.08104327     0.20500
C17         C  0.05852045  0.48038119  0.07501647    -0.54400
C18         C  0.02267282  0.45877453  0.08530628     0.09600
C19         C  0.01652871  0.48442525  0.05045666    -0.53900
C20         C  0.98071572  0.46191602  0.06057051     0.10200
H21         H  0.06840635  0.57481976  0.07361772     0.14700
H22         H  0.95959327  0.45285356  0.08953275     0.00500
H23         H  0.08427695  0.47413179  0.07657587     0.15000
H24         H  0.01624019  0.48321612  0.03574185     0.14800
C25         C  0.49304719  0.95071589  0.06194588     0.86600
C26         C  0.52880645  0.95935336  0.07539976    -0.53600
C27         C  0.53971582  0.99284788  0.08670632     0.09500
C28         C  0.51434673  0.01552699  0.08346925     0.20500
C29         C  0.45696500  0.94534911  0.07442243    -0.54400
C30         C  0.46774187  0.97949116  0.08536564     0.09600
C31         C  0.50885739  0.99327163  0.05214444    -0.53900
C32         C  0.51929902  0.02702889  0.06316223     0.10200
H33         H  0.54319764  0.93999789  0.07697676     0.14700
H34         H  0.52334626  0.04290914  0.09261335     0.00500
H35         H  0.42539570  0.91740201  0.07429214     0.15000
H36         H  0.51122864  0.99634919  0.03746004     0.14800
C37         C  0.34571573  0.66459755  0.94486108     0.45600
H38         H  0.34644067  0.66336710  0.92982571    -0.03400
C39         C  0.34326510  0.66573465  0.97987694     0.45600
H40         H  0.34166493  0.66387286  0.99486655    -0.03400
C41         C  0.30061118  0.64607663  0.95228339    -0.17100
C42         C  0.36314956  0.63886571  0.95414422    -0.16900
C43         C  0.37108826  0.70990722  0.95267955    -0.17300
C44         C  0.29919139  0.64760892  0.97088633    -0.17300
C45         C  0.36168054  0.63934456  0.97263818    -0.16800
C46         C  0.37196452  0.71055923  0.97150705    -0.17100
N47         N  0.32008849  0.22192973  0.13529616    -0.27200
N48         N  0.35656485  0.23893689  0.12643555    -0.35000
C49         C  0.36653469  0.20866200  0.12360189     0.01200
C50         C  0.33489050  0.17089957  0.13100862     0.07200
C51         C  0.30597835  0.18046214  0.13830758    -0.05900
H52         H  0.39472075  0.21381088  0.11660831     0.07900
H53         H  0.27693299  0.15898667  0.14539982     0.09100
Cu54       Cu  0.39160995  0.30234411  0.11824548     0.44200
Cu55       Cu  0.29133337  0.25547155  0.14371831     0.42000
Cu56       Cu  0.35116742  0.36772702  0.13426466     0.43900
N57         N  0.41712833  0.36563449  0.11044263    -0.34600
N58         N  0.40108511  0.38894087  0.11600701    -0.28800
C59         C  0.42020253  0.42625771  0.10706849    -0.04900
C60         C  0.45021933  0.42688069  0.09553125     0.07300
C61         C  0.44756026  0.38798166  0.09801517     0.01100
H62         H  0.41176104  0.45058638  0.10837138     0.08800
H63         H  0.46432283  0.37572911  0.09045212     0.07800
N64         N  0.29794505  0.33956024  0.15085858    -0.36000
N65         N  0.27461228  0.29808994  0.15360954    -0.28200
C66         C  0.24248446  0.29008254  0.16489337    -0.03400
C67         C  0.24618266  0.32844317  0.16965326     0.05200
C68         C  0.28175145  0.35912326  0.16054131     0.03300
H69         H  0.21958033  0.25890517  0.17002259     0.08400
H70         H  0.29525176  0.39318268  0.16108775     0.07200
N71         N  0.34802954  0.07889978  0.12684505    -0.27200
N72         N  0.31035353  0.06103442  0.13468259    -0.35000
C73         C  0.29990152  0.09098231  0.13750764     0.01200
C74         C  0.33252551  0.12941725  0.13102947     0.07200
C75         C  0.36246755  0.12055539  0.12437050    -0.05900
H76         H  0.27071719  0.08514700  0.14377670     0.07900
H77         H  0.39254041  0.14268071  0.11814597     0.09100
Cu78       Cu  0.27586099  0.99696423  0.14147952     0.44200
Cu79       Cu  0.37804716  0.04600084  0.11957003     0.42000
Cu80       Cu  0.32476884  0.93429513  0.12900467     0.43900
N81         N  0.25431780  0.93518415  0.15020108    -0.34600
N82         N  0.27333496  0.91351066  0.14635478    -0.28800
C83         C  0.25574389  0.87770778  0.15634910    -0.04900
C84         C  0.22380256  0.87650685  0.16671310     0.07300
C85         C  0.22347097  0.91318154  0.16244213     0.01100
H86         H  0.26623303  0.85479754  0.15643208     0.08800
H87         H  0.20426504  0.92443441  0.16867734     0.07800
N88         N  0.37997878  0.96553487  0.11374805    -0.36000
N89         N  0.40057462  0.00712058  0.11112084    -0.28200
C90         C  0.43553038  0.01842487  0.10121280    -0.03400
C91         C  0.43676398  0.98216930  0.09720081     0.05200
C92         C  0.40094742  0.94909465  0.10528053     0.03300
H93         H  0.45739012  0.05045995  0.09658742     0.08400
H94         H  0.39081304  0.91564896  0.10498038     0.07200
N95         N  0.90632736  0.63802121  0.12218540    -0.27200
N96         N  0.92764266  0.67587655  0.12989436    -0.35000
C97         C  0.90075215  0.68985470  0.13359594     0.01200
C98         C  0.86057710  0.65941910  0.12792209     0.07200
C99         C  0.86534525  0.62708996  0.12071380    -0.05900
H100        H  0.90965414  0.71948766  0.14033394     0.07900
H101        H  0.84066229  0.59733078  0.11515088     0.09100
Cu102      Cu  0.99125618  0.70497881  0.13700325     0.44200
Cu103      Cu  0.93318798  0.60148639  0.11493507     0.42000
Cu104      Cu  0.03495107  0.63680851  0.13639631     0.43900
N105        N  0.04777018  0.71991545  0.14969703    -0.34600
N106        N  0.06162355  0.69292432  0.15105128    -0.28800
C107        C  0.09479775  0.70887952  0.16255446    -0.04900
C108        C  0.10241071  0.74808425  0.16855255     0.07300
C109        C  0.07246197  0.75430115  0.15983116     0.03500
H110        H  0.11206267  0.69315947  0.16622640     0.08800
H111        H  0.06773101  0.78106259  0.16124020     0.07800
N112        N  0.00796135  0.58833556  0.11741377    -0.36000
N113        N  0.97059010  0.57451934  0.10963981    -0.28200
C114        C  0.96466278  0.54532186  0.09700708    -0.03400
C115        C  0.00024651  0.54115980  0.09676806     0.05200
C116        C  0.02698863  0.56903555  0.10976989     0.03300
H117        H  0.93791593  0.53055324  0.08782409     0.08400
H118        H  0.05893115  0.57626591  0.11286246     0.07200
N119        N  0.77301759  0.67883325  0.13579586    -0.27200
N120        N  0.75317304  0.64158455  0.12751687    -0.35000
C121        C  0.78117829  0.62928035  0.12363153     0.01200
C122        C  0.82071913  0.66008095  0.12968253     0.07200
C123        C  0.81445718  0.69111117  0.13737959    -0.05900
H124        H  0.77330097  0.60019167  0.11662801     0.07900
H125        H  0.83822919  0.72046490  0.14358483     0.09100
Cu126      Cu  0.68960274  0.60933489  0.12033641     0.44200
Cu127      Cu  0.74194890  0.71055356  0.14446997     0.42000
Cu128      Cu  0.63087347  0.66014063  0.12999009     0.43900
N129        N  0.62958047  0.58801727  0.10980600    -0.34600
N130        N  0.60892251  0.60852334  0.11241846    -0.28800
C131        C  0.57346746  0.59031672  0.10223389    -0.04900
C132        C  0.57146526  0.55633337  0.09299770     0.07300
C133        C  0.60743970  0.55565703  0.09822351     0.01100
H134        H  0.55072309  0.60092944  0.10162770     0.08800
H135        H  0.61771561  0.53441336  0.09338225     0.07800
N136        N  0.65893035  0.70936231  0.14884205    -0.36000
N137        N  0.69954952  0.72918217  0.15343935    -0.28200
C138        C  0.70685563  0.75925572  0.16582542    -0.03400
C139        C  0.66891490  0.75756071  0.16946555     0.05200
C140        C  0.63927617  0.72555267  0.15850968     0.03300
H141        H  0.73708290  0.77947183  0.17233157     0.08400
H142        H  0.60571802  0.71466307  0.15768214     0.07200
C143        C  0.62544592  0.79705886  0.20757531     0.86600
C144        C  0.62530181  0.83022945  0.19476444    -0.53600
C145        C  0.65861773  0.84835786  0.18293016     0.09500
C146        C  0.68940887  0.83141549  0.18479470     0.20500
C147        C  0.62786492  0.76474719  0.19492413    -0.54400
C148        C  0.66105160  0.78277477  0.18289331     0.09600
C149        C  0.66968359  0.81972997  0.21651799    -0.53900
C150        C  0.70268420  0.83830292  0.20475481     0.10200
H151        H  0.60136470  0.83941598  0.19540845     0.14700
H152        H  0.71654645  0.84612077  0.17519853     0.00500
H153        H  0.60643273  0.73064685  0.19573235     0.15000
H154        H  0.67538773  0.82062004  0.23098535     0.14800
C155        C  0.20627902  0.37093879  0.20767082     0.86600
C156        C  0.23715290  0.37120036  0.19352200    -0.53600
C157        C  0.22065055  0.33539088  0.18320348     0.09500
C158        C  0.17372967  0.30312031  0.18724032     0.20500
C159        C  0.16879004  0.36499360  0.19595156    -0.54400
C160        C  0.15161638  0.32958334  0.18527297     0.09600
C161        C  0.18890854  0.32912816  0.21806680    -0.53900
C162        C  0.17233148  0.29302951  0.20773997     0.10200
H163        H  0.26935052  0.39750979  0.19177651     0.14700
H164        H  0.16141017  0.27575939  0.17798910     0.00500
H165        H  0.15797296  0.38765061  0.19522898     0.15000
H166        H  0.18934673  0.32886032  0.23278121     0.14800
C167        C  0.18569088  0.79837620  0.20674734     0.86600
C168        C  0.15225229  0.76278035  0.19460111    -0.53600
C169        C  0.13429556  0.77657156  0.18195748     0.09500
C170        C  0.15080090  0.82471731  0.18282093     0.20500
C171        C  0.21724900  0.83191012  0.19339319    -0.54400
C172        C  0.19904376  0.84537334  0.18090163     0.09600
C173        C  0.16151105  0.81886815  0.21487886    -0.53900
C174        C  0.14406694  0.83309594  0.20248941     0.10200
H175        H  0.14364211  0.72971400  0.19591012     0.14700
H176        H  0.13654546  0.83642713  0.17270822     0.00500
H177        H  0.25119121  0.84402215  0.19380089     0.15000
H178        H  0.15778028  0.82309605  0.22896424     0.14800
C179        C  0.33312774  0.65997048  0.32278613     0.45600
H180        H  0.32624915  0.65506778  0.33732268    -0.03400
C181        C  0.34291300  0.67028182  0.28811509     0.45600
H182        H  0.34878078  0.67644600  0.27346619    -0.03400
C183        C  0.38047774  0.68564931  0.31737169    -0.17100
C184        C  0.31348916  0.61795321  0.31199903    -0.16900
C185        C  0.31328125  0.68451196  0.31489131    -0.17300
C186        C  0.38485359  0.68973838  0.29863015    -0.17300
C187        C  0.31917659  0.62312466  0.29344654    -0.16800
C188        C  0.31820795  0.68982531  0.29652400    -0.17100
N189        N  0.03019892  0.38580653  0.11689536    -0.27200
N190        N  0.98878895  0.36574577  0.11413108    -0.35000
C191        C  0.97951918  0.38943041  0.10312882     0.01200
C192        C  0.01699970  0.42590674  0.09857958     0.07200
C193        C  0.04849523  0.42256041  0.10753481    -0.05900
H194        H  0.94814777  0.37967684  0.09803103     0.07900
H195        H  0.08224267  0.44477195  0.10705431     0.09100
Cu196      Cu  0.94793173  0.30483410  0.12354717     0.44200
Cu197      Cu  0.06003691  0.36181638  0.13293015     0.42000
Cu198      Cu  0.99539648  0.25336118  0.14867636     0.43900
N199        N  0.91538557  0.24161703  0.13139649    -0.34600
N200        N  0.93262159  0.22242961  0.14016697    -0.28800
C201        C  0.90290997  0.18128594  0.14268539    -0.04900
C202        C  0.86530295  0.17447260  0.13515709     0.07300
C203        C  0.87436781  0.21334030  0.12813334     0.01100
H204        H  0.90825915  0.15822498  0.14960483     0.08800
H205        H  0.85283869  0.22062026  0.12109032     0.07800
N206        N  0.05777326  0.29330005  0.15676479    -0.36000
N207        N  0.08129734  0.33300660  0.15106970    -0.28200
C208        C  0.11857841  0.35131072  0.15993128    -0.03400
C209        C  0.11878173  0.32161665  0.17160636     0.05200
C210        C  0.07957268  0.28532802  0.16934278     0.03300
H211        H  0.14330863  0.38429859  0.15840107     0.08400
H212        H  0.06642144  0.25636367  0.17713556     0.07200
N213        N  0.60469724  0.98709718  0.12249787    -0.27200
N214        N  0.62888979  0.02715343  0.11736823    -0.35000
C215        C  0.60783107  0.03685613  0.10501961     0.01200
C216        C  0.56860574  0.00101031  0.10214108     0.07200
C217        C  0.56782826  0.97013377  0.11340590    -0.05900
H218        H  0.62164643  0.06629952  0.09739489     0.07900
H219        H  0.54350958  0.93683666  0.11388267     0.09100
Cu220      Cu  0.69224411  0.06269294  0.12452186     0.44200
Cu221      Cu  0.62559176  0.95502425  0.13913351     0.42000
Cu222      Cu  0.73860397  0.00404653  0.14561841     0.43900
N223        N  0.75576799  0.08888648  0.13100579    -0.34600
N224        N  0.77278564  0.06791107  0.13841779    -0.28800
C225        C  0.81451644  0.09501726  0.14098247    -0.04900
C226        C  0.82406107  0.13475051  0.13481803     0.07300
C227        C  0.78616358  0.12967067  0.12856391     0.01100
H228        H  0.83612253  0.08647087  0.14704832     0.08800
H229        H  0.78084182  0.15390950  0.12283598     0.07800
N230        N  0.69541567  0.94351018  0.15502927    -0.36000
N231        N  0.65389632  0.92659670  0.15351262    -0.28200
C232        C  0.63445142  0.88965610  0.16277426    -0.03400
C233        C  0.66518687  0.88272667  0.17027483     0.05200
C234        C  0.70347644  0.91742452  0.16502226     0.03300
H235        H  0.60042805  0.86963086  0.16416894     0.08400
H236        H  0.73483036  0.92442205  0.16904329     0.07200
C237        C  0.85997397  0.70577063  0.53935580     0.86600
C238        C  0.89203337  0.70168424  0.52756642    -0.53600
C239        C  0.87445104  0.66852993  0.51569641     0.09500
C240        C  0.82571680  0.64110422  0.51705510     0.20500
C241        C  0.82879771  0.70725572  0.52557632    -0.54400
C242        C  0.81059666  0.67314922  0.51403738     0.09600
C243        C  0.83286000  0.66238645  0.54861634    -0.53900
C244        C  0.81607603  0.62865854  0.53717158     0.10200
H245        H  0.92592103  0.72421225  0.52818734     0.14700
H246        H  0.81131206  0.61365568  0.50762516     0.00500
H247        H  0.82001240  0.73147516  0.52538641     0.15000
H248        H  0.82720778  0.65846779  0.56313883     0.14800
C249        C  0.87848107  0.14843099  0.54009064     0.86600
C250        C  0.84202055  0.11457259  0.52868645    -0.53600
C251        C  0.82179516  0.12968020  0.51826573     0.09500
C252        C  0.83958052  0.17765781  0.52009165     0.20500
C253        C  0.90779996  0.18276713  0.52653020    -0.54400
C254        C  0.88763422  0.19812994  0.51598720     0.09600
C255        C  0.85972002  0.17140979  0.55058139    -0.53900
C256        C  0.83692390  0.18461275  0.54058318     0.10200
H257        H  0.83262449  0.08116942  0.52906624     0.14700
H258        H  0.82301101  0.18829807  0.51092563     0.00500
H259        H  0.94169160  0.19514073  0.52570537     0.15000
H260        H  0.86604948  0.17879219  0.56484537     0.14800
C261        C  0.27842363  0.13390140  0.53578714     0.86600
C262        C  0.28340489  0.17242685  0.52497607    -0.53600
C263        C  0.32086468  0.19451711  0.51572356     0.09500
C264        C  0.35023985  0.17598426  0.51805792     0.20500
C265        C  0.28448472  0.10774595  0.52098080    -0.54400
C266        C  0.32262472  0.12929261  0.51216295     0.09600
C267        C  0.31798534  0.15179597  0.54771808    -0.53900
C268        C  0.35528875  0.17353627  0.53859568     0.10200
H269        H  0.25885329  0.18070792  0.52414888     0.14700
H270        H  0.38075788  0.19367243  0.51059810     0.00500
H271        H  0.26073191  0.07552381  0.51738296     0.15000
H272        H  0.31653962  0.14801804  0.56237723     0.14800
C273        C  0.00213019  0.98978325  0.65769723     0.45600
H274        H  0.00511524  0.99644723  0.67211923    -0.03400
C275        C  0.99556349  0.97903003  0.62309518     0.45600
H276        H  0.99229529  0.97381593  0.60819108    -0.03400
C277        C  0.04524332  0.00523416  0.64807661    -0.17100
C278        C  0.97349138  0.94239024  0.65268824    -0.16900
C279        C  0.98269892  0.01366389  0.64830278    -0.17300
C280        C  0.04165067  0.99996002  0.62955971    -0.17300
C281        C  0.97119842  0.93746884  0.63395652    -0.16800
C282        C  0.97963300  0.00809704  0.62982337    -0.17100
N283        N  0.44498083  0.02825839  0.47240671    -0.27200
N284        N  0.42792120  0.99301203  0.46263725    -0.35000
C285        C  0.45678725  0.98110080  0.46025564     0.01200
C286        C  0.49381625  0.00995337  0.46893262     0.07200
C287        C  0.48528940  0.03948266  0.47651183    -0.05900
H288        H  0.45109692  0.95334636  0.45271120     0.07900
H289        H  0.50671672  0.06703326  0.48443714     0.09100
Cu290      Cu  0.36662833  0.96136423  0.45230660     0.44200
Cu291      Cu  0.41285456  0.05967990  0.47982299     0.42000
Cu292      Cu  0.30986169  0.01535836  0.45879333     0.43900
N293        N  0.30666557  0.93933300  0.44145395    -0.34600
N294        N  0.28712530  0.96121357  0.44306108    -0.28800
C295        C  0.25046754  0.94143718  0.43382573    -0.04900
C296        C  0.24629971  0.90491924  0.42625317     0.07300
C297        C  0.28242381  0.90437285  0.43139924     0.01100
H298        H  0.22814738  0.95254649  0.43289372     0.08800
H299        H  0.29105237  0.88114150  0.42764871     0.07800
N300        N  0.33250114  0.06337944  0.47792696    -0.36000
N301        N  0.37052651  0.08070010  0.48544919    -0.28200
C302        C  0.37386681  0.10895047  0.49804012    -0.03400
C303        C  0.33589520  0.10875030  0.49857312     0.05200
C304        C  0.31043216  0.07934574  0.48572898     0.03300
H305        H  0.40070243  0.12607188  0.50701244     0.08400
H306        H  0.27764294  0.06906476  0.48274834     0.07200
N307        N  0.57999451  0.98767086  0.46610806    -0.27200
N308        N  0.59888959  0.02327087  0.47562064    -0.35000
C309        C  0.57125459  0.03689919  0.47816201     0.01200
C310        C  0.53335668  0.00858314  0.46979766     0.07200
C311        C  0.54013094  0.97789968  0.46230165    -0.05900
H312        H  0.57827469  0.06528826  0.48553888     0.07900
H313        H  0.51772890  0.95035316  0.45461736     0.09100
Cu314      Cu  0.66136264  0.05177600  0.48476001     0.44200
Cu315      Cu  0.60803028  0.95312378  0.45816008     0.42000
Cu316      Cu  0.71470657  0.99467072  0.47311708     0.43900
N317        N  0.72285383  0.07036196  0.49302144    -0.34600
N318        N  0.74122949  0.04805066  0.48933825    -0.28800
C319        C  0.77925624  0.06601542  0.49751963    -0.04900
C320        C  0.78547060  0.10171405  0.50660819     0.07300
C321        C  0.74923454  0.10373797  0.50343010     0.01100
H322        H  0.80079794  0.05393609  0.49687815     0.08800
H323        H  0.74190337  0.12675267  0.50885189     0.07800
N324        N  0.68503588  0.94488976  0.45506371    -0.36000
N325        N  0.64514891  0.92827790  0.44985817    -0.28200
C326        C  0.63650467  0.89853452  0.43714922    -0.03400
C327        C  0.67302140  0.89706916  0.43411429     0.05200
C328        C  0.70310243  0.92689520  0.44563702     0.03300
H329        H  0.60701546  0.88175827  0.42968577     0.08400
H330        H  0.73626662  0.93623613  0.44651041     0.07200
N331        N  0.02778844  0.43462675  0.45861924    -0.27200
N332        N  0.99249006  0.41632060  0.46837848    -0.35000
C333        C  0.98070330  0.44505418  0.47174176     0.01200
C334        C  0.01001392  0.48334979  0.46390869     0.07200
C335        C  0.03943915  0.47562450  0.45571715    -0.05900
H336        H  0.95313457  0.43864444  0.47960564     0.07900
H337        H  0.06717575  0.49807466  0.44809743     0.09100
Cu338      Cu  0.96179923  0.35381862  0.47783431     0.44200
Cu339      Cu  0.05855821  0.40345535  0.44901936     0.42000
Cu340      Cu  0.00628884  0.29316604  0.46227966     0.43900
N341        N  0.94064897  0.29209332  0.48684523    -0.34600
N342        N  0.95809582  0.27019190  0.48120111    -0.28800
C343        C  0.94098800  0.23314608  0.49029251    -0.04900
C344        C  0.91075717  0.23119826  0.50207954     0.07300
C345        C  0.91150509  0.26923051  0.49962720     0.01100
H346        H  0.95059767  0.20974036  0.48875157     0.08800
H347        H  0.89443747  0.28074155  0.50734446     0.07800
N348        N  0.05613065  0.32062723  0.44414690    -0.36000
N349        N  0.07708143  0.36135561  0.43963933    -0.28200
C350        C  0.10792229  0.36808978  0.42773321    -0.03400
C351        C  0.10545308  0.32949607  0.42448033     0.05200
C352        C  0.07229850  0.30030267  0.43511486     0.03300
H353        H  0.12933100  0.39836676  0.42138685     0.08400
H354        H  0.06062346  0.26658313  0.43620432     0.07200
N355        N  0.93190018  0.63746463  0.48481319    -0.27200
N356        N  0.95431950  0.67932647  0.48333416    -0.35000
C357        C  0.93641317  0.69624758  0.49358547     0.01200
C358        C  0.90053578  0.66356247  0.50172253     0.07200
C359        C  0.89810460  0.62659219  0.49556213    -0.05900
H360        H  0.94917477  0.73002446  0.49531366     0.07900
H361        H  0.87514328  0.59439062  0.49940340     0.09100
Cu362      Cu  0.00920549  0.71214461  0.46803329     0.44200
Cu363      Cu  0.95427978  0.59893304  0.47531221     0.42000
Cu364      Cu  0.06476465  0.65764824  0.45846300     0.43900
N365        N  0.06447205  0.73906218  0.45280780    -0.34600
N366        N  0.08734948  0.72069993  0.45078977    -0.28800
C367        C  0.12102243  0.74565316  0.44021678    -0.04900
C368        C  0.11809208  0.78033179  0.43456313     0.07300
C369        C  0.08189587  0.77516300  0.44294671     0.01100
H370        H  0.14412235  0.73748691  0.43591970     0.08800
H371        H  0.06822465  0.79518938  0.44138584     0.07800
N372        N  0.02957297  0.59194698  0.46275663    -0.36000
N373        N  0.98996777  0.57103998  0.46875604    -0.28200
C374        C  0.97715914  0.52944678  0.47010322    -0.03400
C375        C  0.00994281  0.52370557  0.46449250     0.05200
C376        C  0.04261655  0.56394302  0.45987829     0.03300
H377        H  0.94615993  0.50516850  0.47479499     0.08400
H378        H  0.07376148  0.57236134  0.45496062     0.07200
N379        N  0.69019912  0.73366287  0.44660782    -0.27200
N380        N  0.64957215  0.71220891  0.44218946    -0.35000
C381        C  0.64064187  0.73693186  0.43168677     0.01200
C382        C  0.67768972  0.77535530  0.42902840     0.07200
C383        C  0.70848206  0.77215826  0.43863392    -0.05900
H384        H  0.60994727  0.72688834  0.42572234     0.07900
H385        H  0.74179871  0.79594818  0.43964420     0.09100
Cu386      Cu  0.61002441  0.64870949  0.44897465     0.44200
Cu387      Cu  0.71862277  0.70948112  0.46337943     0.42000
Cu388      Cu  0.65846852  0.59725388  0.47408214     0.43900
N389        N  0.57830158  0.58483148  0.45614895    -0.34600
N390        N  0.59568337  0.56603470  0.46513909    -0.28800
C391        C  0.56588198  0.52506552  0.46804548    -0.04900
C392        C  0.52808524  0.51778718  0.46049292     0.07300
C393        C  0.53718330  0.55632096  0.45302923     0.01100
H394        H  0.57121795  0.50246624  0.47537941     0.08800
H395        H  0.51538104  0.56341274  0.44611847     0.07800
N396        N  0.71917480  0.63825924  0.48413397    -0.36000
N397        N  0.74002334  0.67963844  0.48084499    -0.28200
C398        C  0.77582979  0.69822676  0.49076153    -0.03400
C399        C  0.77809673  0.66703097  0.50052717     0.05200
C400        C  0.74176968  0.62933880  0.49595916     0.03300
H401        H  0.79841467  0.73205074  0.49094147     0.08400
H402        H  0.73152971  0.59810824  0.50149745     0.07200
N403        N  0.26967502  0.32128170  0.44808563    -0.27200
N404        N  0.29173690  0.36063449  0.44181262    -0.35000
C405        C  0.26789323  0.36673535  0.42952490     0.01200
C406        C  0.22934686  0.32913501  0.42790943     0.07200
C407        C  0.23176199  0.30111185  0.43981466    -0.05900
H408        H  0.27879636  0.39531393  0.42151541     0.07900
H409        H  0.20817836  0.26796649  0.44189243     0.09100
Cu410      Cu  0.35514792  0.40083116  0.44888079     0.44200
Cu411      Cu  0.29254561  0.29501488  0.46663287     0.42000
Cu412      Cu  0.40252689  0.35039827  0.47713643     0.43900
N413        N  0.41852251  0.43039525  0.45701890    -0.34600
N414        N  0.43536176  0.41215290  0.46682856    -0.28800
C415        C  0.47680774  0.44032334  0.46943840    -0.04900
C416        C  0.48661460  0.47802714  0.46091234     0.07300
C417        C  0.44895904  0.47062659  0.45318435     0.01100
H418        H  0.49811201  0.43386479  0.47715028     0.08800
H419        H  0.44395152  0.49284700  0.44537102     0.07800
N420        N  0.36069776  0.29031324  0.48764449    -0.36000
N421        N  0.31961315  0.27107809  0.48421509    -0.28200
C422        C  0.29961022  0.23449456  0.49362260    -0.03400
C423        C  0.32950832  0.23004661  0.50334789     0.05200
C424        C  0.36806585  0.26591682  0.49916135     0.03300
H425        H  0.26575364  0.21253595  0.49326083     0.08400
H426        H  0.39889925  0.27425271  0.50448875     0.07200
C427        C  0.15463221  0.85327893  0.39232693     0.86600
C428        C  0.12455032  0.82545049  0.40771733    -0.53600
C429        C  0.14280245  0.81083383  0.41985905     0.09500
C430        C  0.18979103  0.82597361  0.41562329     0.20500
C431        C  0.19301936  0.88872668  0.40223453    -0.54400
C432        C  0.21127883  0.87481774  0.41447285     0.09600
C433        C  0.16956765  0.82454547  0.38415608    -0.53900
C434        C  0.18928490  0.81161661  0.39600963     0.10200
H435        H  0.09129360  0.81580690  0.40847716     0.14700
H436        H  0.20504735  0.81467685  0.42542535     0.00500
H437        H  0.20436412  0.92223603  0.39993931     0.15000
H438        H  0.16663731  0.81648030  0.36986248     0.14800
C439        C  0.14352559  0.27471970  0.39138120     0.86600
C440        C  0.17677008  0.28006257  0.40549659    -0.53600
C441        C  0.19575307  0.31824290  0.41427921     0.09500
C442        C  0.17845814  0.34739657  0.40871732     0.20500
C443        C  0.11201545  0.28168430  0.40261950    -0.54400
C444        C  0.13021334  0.31953838  0.41167998     0.09600
C445        C  0.16568134  0.31410234  0.37912331    -0.53900
C446        C  0.18411106  0.35190580  0.38803658     0.10200
H447        H  0.18488389  0.25579167  0.40819797     0.14700
H448        H  0.19338611  0.37813872  0.41607707     0.00500
H449        H  0.07865022  0.25892692  0.40414892     0.15000
H450        H  0.16615208  0.31217460  0.36444175     0.14800
C451        C  0.71973896  0.86672367  0.39434765     0.86600
C452        C  0.71589941  0.89575971  0.40843453    -0.53600
C453        C  0.68108755  0.87503138  0.41939983     0.09500
C454        C  0.65315819  0.82720973  0.41548046     0.20500
C455        C  0.71904316  0.83145513  0.40609702    -0.54400
C456        C  0.68414261  0.81047254  0.41695407     0.09600
C457        C  0.67712770  0.84583598  0.38434989    -0.53900
C458        C  0.64264577  0.82493830  0.39524048     0.10200
H459        H  0.73808290  0.92935612  0.41012976     0.14700
H460        H  0.62487397  0.81041515  0.42439132     0.00500
H461        H  0.74390971  0.82351302  0.40570298     0.15000
H462        H  0.67439939  0.84732826  0.36971453     0.14800
C463        C  0.00142431  0.98702526  0.27617967     0.45600
H464        H  0.00102872  0.98991106  0.26118886    -0.03400
C465        C  0.00393231  0.98081753  0.31106088     0.45600
H466        H  0.00526176  0.97840820  0.32597320    -0.03400
C467        C  0.03110905  0.02945452  0.28557549    -0.17100
C468        C  0.95773680  0.96934938  0.28518819    -0.16900
C469        C  0.01709518  0.95735284  0.28216807    -0.17300
C470        C  0.03235258  0.02652768  0.30413487    -0.17300
C471        C  0.95949189  0.96816754  0.30389031    -0.16800
C472        C  0.01790515  0.95321518  0.30064536    -0.17100
C473        C  0.80651938  0.59897278  0.72841386     0.86600
C474        C  0.84475053  0.60441142  0.73954489    -0.53600
C475        C  0.86297879  0.63959652  0.75039861     0.09500
C476        C  0.84091527  0.66612379  0.74935946     0.20500
C477        C  0.77665342  0.59831553  0.74325295    -0.54400
C478        C  0.79392816  0.63398867  0.75382788     0.09600
C479        C  0.82292199  0.64115719  0.71833951    -0.53900
C480        C  0.84088514  0.67600498  0.72911271     0.10200
H481        H  0.85604588  0.58208128  0.73924159     0.14700
H482        H  0.85564978  0.69479683  0.75810152     0.00500
H483        H  0.74467313  0.57200016  0.74530938     0.15000
H484        H  0.82121571  0.64337679  0.70369427     0.14800
C485        C  0.37924949  0.18524387  0.72314576     0.86600
C486        C  0.37834910  0.21420490  0.73793624    -0.53600
C487        C  0.34585289  0.19377071  0.75008500     0.09500
C488        C  0.31699377  0.14576050  0.74645627     0.20500
C489        C  0.37983706  0.14886742  0.73356900    -0.54400
C490        C  0.34776985  0.12861000  0.74587511     0.09600
C491        C  0.33447171  0.16325210  0.71472606    -0.53900
C492        C  0.30225884  0.14302120  0.72677881     0.10200
H493        H  0.40110399  0.24807134  0.73855713     0.14700
H494        H  0.29062737  0.12896171  0.75631453     0.00500
H495        H  0.40327118  0.13951292  0.73127049     0.15000
H496        H  0.32754109  0.15962981  0.70034776     0.14800
C497        C  0.81247944  0.18589068  0.72566978     0.86600
C498        C  0.78069332  0.14646902  0.73665352    -0.53600
C499        C  0.79851510  0.12694214  0.74596930     0.09500
C500        C  0.84702078  0.14864471  0.74342499     0.20500
C501        C  0.84444481  0.21381242  0.74033982    -0.54400
C502        C  0.86360095  0.19503660  0.74921398     0.09600
C503        C  0.83594353  0.17038467  0.71369331    -0.53900
C504        C  0.85405469  0.15111089  0.72279150     0.10200
H505        H  0.74718910  0.13603821  0.73770488     0.14700
H506        H  0.86172757  0.13294926  0.75093975     0.00500
H507        H  0.85008290  0.24480742  0.74419256     0.15000
H508        H  0.83724123  0.17357045  0.69901393     0.14800
C509        C  0.66537930  0.32104904  0.60650330     0.45600
H510        H  0.66671024  0.32064504  0.59147091    -0.03400
C511        C  0.66300108  0.32269280  0.64151527     0.45600
H512        H  0.66151776  0.32339082  0.65654846    -0.03400
C513        C  0.68713669  0.36635994  0.61427298    -0.17100
C514        C  0.62006902  0.29876993  0.61410644    -0.16900
C515        C  0.68708114  0.29935870  0.61591396    -0.17300
C516        C  0.68590741  0.36710429  0.63294675    -0.17300
C517        C  0.61910321  0.29962153  0.63271189    -0.16800
C518        C  0.68632585  0.30076920  0.63453087    -0.17100
N519        N  0.66322875  0.89448680  0.80678671    -0.27200
N520        N  0.69749643  0.91122369  0.79638218    -0.35000
C521        C  0.70831885  0.88155217  0.79331183     0.01200
C522        C  0.67962951  0.84440711  0.80218085     0.07200
C523        C  0.65155569  0.85383596  0.81056096    -0.05900
H524        H  0.73499619  0.88662747  0.78513109     0.07900
H525        H  0.62452266  0.83267165  0.81883119     0.09100
Cu526      Cu  0.72792484  0.97327492  0.78611713     0.44200
Cu527      Cu  0.63284064  0.92670059  0.81580540     0.42000
Cu528      Cu  0.67847718  0.03310192  0.79951076     0.43900
N529        N  0.74621664  0.03357094  0.77578360    -0.34600
N530        N  0.72621327  0.05392577  0.78019142    -0.28800
C531        C  0.74184331  0.08971034  0.77028359    -0.04900
C532        C  0.77372257  0.09263161  0.75925639     0.07300
C533        C  0.77596762  0.05664246  0.76316947     0.01100
H534        H  0.73091539  0.11219467  0.77113776     0.08800
H535        H  0.79654839  0.04718013  0.75685712     0.07800
N536        N  0.62979589  0.00737337  0.81847016    -0.36000
N537        N  0.61107911  0.96729946  0.82390312    -0.28200
C538        C  0.57919918  0.95979734  0.83532846    -0.03400
C539        C  0.57852611  0.99721673  0.83738020     0.05200
C540        C  0.61119428  0.02668863  0.82658097     0.03300
H541        H  0.55869388  0.92968875  0.84198651     0.08400
H542        H  0.62025617  0.05961563  0.82449228     0.07200
N543        N  0.60847723  0.58376760  0.81762462    -0.27200
N544        N  0.59699261  0.60973518  0.82455074    -0.35000
C545        C  0.56760145  0.58893307  0.83749011     0.01200
C546        C  0.55981947  0.54774171  0.83864027     0.07200
C547        C  0.58671916  0.54582535  0.82600431    -0.05900
H548        H  0.55581685  0.60393230  0.84641192     0.07900
H549        H  0.59186563  0.51945724  0.82381802     0.09100
Cu550      Cu  0.62578332  0.67365287  0.81754521     0.44200
Cu551      Cu  0.65783927  0.60318801  0.79914673     0.42000
Cu552      Cu  0.72192113  0.71711451  0.79048184     0.43900
N553        N  0.65919083  0.73625893  0.80846168    -0.34600
N554        N  0.69416665  0.75244652  0.79857865    -0.28800
C555        C  0.70695357  0.79342455  0.79475364    -0.04900
C556        C  0.67874246  0.80341587  0.80267056     0.07300
C557        C  0.64896146  0.76636771  0.81122973     0.01100
H558        H  0.73464618  0.81433498  0.78675778     0.08800
H559        H  0.62160419  0.76148058  0.81885180     0.07800
N560        N  0.73856518  0.67286516  0.78193923    -0.36000
N561        N  0.71364156  0.63132595  0.78408925    -0.28200
C562        C  0.73047068  0.61128020  0.77517961    -0.03400
C563        C  0.76821457  0.64153966  0.76721001     0.05200
C564        C  0.77251007  0.68023960  0.77196905     0.03300
H565        H  0.71576826  0.57715451  0.77425701     0.08400
H566        H  0.79713987  0.71142849  0.76755117     0.07200
N567        N  0.35886050  0.05367759  0.77498177    -0.27200
N568        N  0.31848195  0.03039469  0.77032763    -0.35000
C569        C  0.30789953  0.05376182  0.75972758     0.01200
C570        C  0.34356870  0.09342775  0.75735418     0.07200
C571        C  0.37534969  0.09221280  0.76709489    -0.05900
H572        H  0.27702997  0.04222445  0.75365124     0.07900
H573        H  0.40802176  0.11759895  0.76841980     0.09100
Cu574      Cu  0.28142128  0.96688573  0.77759528     0.44200
Cu575      Cu  0.38870847  0.03150414  0.79232848     0.42000
Cu576      Cu  0.33214163  0.91903745  0.80401588     0.43900
N577        N  0.25150193  0.90340079  0.78527788    -0.34600
N578        N  0.26954140  0.88565786  0.79457218    -0.28800
C579        C  0.24053936  0.84428672  0.79733425    -0.04900
C580        C  0.20260119  0.83578101  0.78942839     0.07300
C581        C  0.21082201  0.87396430  0.78191453     0.01100
H582        H  0.24644569  0.82226557  0.80481069     0.08800
H583        H  0.18876479  0.88011731  0.77465276     0.07800
N584        N  0.39231084  0.96255318  0.81412511    -0.36000
N585        N  0.41171994  0.00376101  0.81045505    -0.28200
C586        C  0.44703133  0.02404104  0.82065458    -0.03400
C587        C  0.45057894  0.99427322  0.83103191     0.05200
C588        C  0.41542608  0.95556447  0.82647688     0.03300
H589        H  0.46823624  0.05817926  0.82076568     0.08400
H590        H  0.40603948  0.92494278  0.83250175     0.07200
N591        N  0.94216431  0.63975966  0.78059319    -0.27200
N592        N  0.96396888  0.67908194  0.77423784    -0.35000
C593        C  0.93853856  0.68611058  0.76323620     0.01200
C594        C  0.89917002  0.64916371  0.76246826     0.07200
C595        C  0.90284043  0.62049243  0.77352750    -0.05900
H596        H  0.94864659  0.71500100  0.75553451     0.07900
H597        H  0.87884243  0.58757403  0.77595068     0.09100
Cu598      Cu  0.02887684  0.71811581  0.77945742     0.44200
Cu599      Cu  0.96732301  0.61309686  0.79798782     0.42000
Cu600      Cu  0.08023034  0.66471125  0.80220646     0.43900
N601        N  0.09351334  0.74722225  0.78579081    -0.34600
N602        N  0.11178152  0.72800879  0.79378034    -0.28800
C603        C  0.15327276  0.75642180  0.79623514    -0.04900
C604        C  0.16168865  0.79527255  0.78939312     0.07300
C605        C  0.12313023  0.78825182  0.78286018     0.01100
H606        H  0.17554148  0.74934139  0.80271285     0.08800
H607        H  0.11687025  0.81140851  0.77664068     0.07800
N608        N  0.03931353  0.60618487  0.81421392    -0.36000
N609        N  0.99774047  0.58950398  0.81398399    -0.28200
C610        C  0.97996498  0.55635164  0.82554516    -0.03400
C611        C  0.01176733  0.55141680  0.83329309     0.05200
C612        C  0.04895145  0.58301815  0.82542058     0.03300
H613        H  0.94630973  0.53751134  0.82828624     0.08400
H614        H  0.08076801  0.58998757  0.82815910     0.07200
N615        N  0.40152881  0.36733608  0.82103253    -0.27200
N616        N  0.37989664  0.38622243  0.82506722    -0.35000
C617        C  0.40265727  0.41799099  0.83683258     0.01200
C618        C  0.44001286  0.41854707  0.84059807     0.07200
C619        C  0.43815267  0.38591442  0.83040417    -0.05900
H620        H  0.39200313  0.43796938  0.84280096     0.07900
H621        H  0.46165325  0.37631035  0.82985838     0.09100
Cu622      Cu  0.31844506  0.36422217  0.81577381     0.44200
Cu623      Cu  0.37978668  0.31685031  0.80305382     0.42000
Cu624      Cu  0.26814721  0.26301984  0.79148954     0.43900
N625        N  0.25551784  0.33224272  0.80715668    -0.34600
N626        N  0.23704444  0.29523166  0.79867514    -0.28800
C627        C  0.19644123  0.28353498  0.79511200    -0.04900
C628        C  0.18898271  0.31458594  0.80168704     0.07300
C629        C  0.22709935  0.34493795  0.80924227     0.01100
H630        H  0.17415815  0.25473406  0.78808999     0.08800
H631        H  0.23380978  0.37422211  0.81573802     0.07800
N632        N  0.30957610  0.24411531  0.78213590    -0.36000
N633        N  0.35085600  0.26579738  0.78531695    -0.28200
C634        C  0.36990312  0.25017851  0.77491959    -0.03400
C635        C  0.33906696  0.21653701  0.76498802     0.05200
C636        C  0.30115803  0.21327529  0.77004628     0.03300
H637        H  0.40381032  0.26309834  0.77427041     0.08400
H638        H  0.27013662  0.19200622  0.76447774     0.07200
N639        N  0.10211573  0.33620764  0.80329930    -0.27200
N640        N  0.08305100  0.29901122  0.79494228    -0.35000
C641        C  0.11097282  0.28554739  0.79308718     0.01200
C642        C  0.14926615  0.31562699  0.80064156     0.07200
C643        C  0.14243990  0.34722543  0.80698660    -0.05900
H644        H  0.10388079  0.25604207  0.78669534     0.07900
H645        H  0.16503605  0.37609690  0.81387055     0.09100
Cu646      Cu  0.01997423  0.26788870  0.78620885     0.44200
Cu647      Cu  0.07315825  0.37048170  0.81032081     0.42000
Cu648      Cu  0.96198758  0.31805477  0.80099796     0.43900
N649        N  0.95779945  0.24739828  0.77806634    -0.34600
N650        N  0.93741500  0.26686853  0.78323086    -0.28800
C651        C  0.90022802  0.24995360  0.77436802    -0.04900
C652        C  0.89654746  0.21787156  0.76320872     0.07300
C653        C  0.93359543  0.21698215  0.76593721     0.01100
H654        H  0.87809809  0.26117781  0.77553890     0.08800
H655        H  0.94340977  0.19763601  0.75876526     0.07800
N656        N  0.99315779  0.37163878  0.81733800    -0.36000
N657        N  0.03465959  0.39263454  0.81989515    -0.28200
C658        C  0.04518268  0.42587895  0.83093257    -0.03400
C659        C  0.00837669  0.42524057  0.83579201     0.05200
C660        C  0.97602955  0.39038240  0.82697300     0.03300
H661        H  0.07689923  0.44743987  0.83585026     0.08400
H662        H  0.94241582  0.37920686  0.82765346     0.07200
C663        C  0.52756947  0.46564824  0.87693804     0.86600
C664        C  0.49458782  0.43195284  0.86406268    -0.53600
C665        C  0.47342829  0.44618453  0.85362073     0.09500
C666        C  0.48830984  0.49353425  0.85636820     0.20500
C667        C  0.55707521  0.50150140  0.86385270    -0.54400
C668        C  0.53681265  0.51629379  0.85314344     0.09600
C669        C  0.50437362  0.48382737  0.88727613    -0.53900
C670        C  0.48292334  0.49797446  0.87690414     0.10200
H671        H  0.48871240  0.39973200  0.86313062     0.14700
H672        H  0.47144323  0.50402355  0.84720938     0.00500
H673        H  0.59068259  0.51299947  0.86231915     0.15000
H674        H  0.50573818  0.48570816  0.90197926     0.14800
C675        C  0.52876990  0.04042067  0.87099105     0.86600
C676        C  0.56408626  0.03896461  0.86011336    -0.53600
C677        C  0.54966270  0.00472594  0.84875829     0.09500
C678        C  0.50120843  0.97433817  0.84953384     0.20500
C679        C  0.49692343  0.03736638  0.85664505    -0.54400
C680        C  0.48221120  0.00288075  0.84547507     0.09600
C681        C  0.50668782  0.99701488  0.88074207    -0.53900
C682        C  0.49236277  0.96280943  0.86968435     0.10200
H683        H  0.59764427  0.06156297  0.86180181     0.14700
H684        H  0.48953321  0.94633431  0.84048908     0.00500
H685        H  0.48638423  0.06026895  0.85563871     0.15000
H686        H  0.50496157  0.99308158  0.89536557     0.14800
C687        C  0.97087170  0.47167429  0.87314799     0.86600
C688        C  0.97372445  0.50611791  0.86012912    -0.53600
C689        C  0.00656162  0.52107947  0.84795678     0.09500
C690        C  0.03505535  0.50137845  0.85046774     0.20500
C691        C  0.97051063  0.43787499  0.86072984    -0.54400
C692        C  0.00382530  0.45312196  0.84892161     0.09600
C693        C  0.01487262  0.49378965  0.88217729    -0.53900
C694        C  0.04819976  0.50834520  0.87058855     0.10200
H695        H  0.95170372  0.51773624  0.86048255     0.14700
H696        H  0.06212747  0.51362057  0.84086832     0.00500
H697        H  0.94594090  0.40452571  0.86133726     0.15000
H698        H  0.02049964  0.49908290  0.89661584     0.14800
C699        C  0.67924278  0.32470583  0.95430213     0.45600
H700        H  0.67771324  0.32466425  0.93928843    -0.03400
C701        C  0.68272748  0.32292695  0.98936184     0.45600
H702        H  0.68460318  0.32190249  0.00438653    -0.03400
C703        C  0.64957557  0.28021440  0.96242611    -0.17100
C704        C  0.72396287  0.33865899  0.96171303    -0.16900
C705        C  0.66621711  0.35440264  0.96360112    -0.17300
C706        C  0.65189432  0.27956852  0.98099056    -0.17300
C707        C  0.72544942  0.33778014  0.98023976    -0.16800
C708        C  0.66810934  0.35318672  0.98236178    -0.17100
C709        C  0.76205157  0.35702557  0.94987198    -0.11900
C710        C  0.76660110  0.33306633  0.93607360     0.03600
C711        C  0.80038544  0.35280209  0.92382921    -0.12400
C712        C  0.82972384  0.39646703  0.92493584     0.18500
C713        C  0.82546194  0.42045794  0.93878344    -0.09400
C714        C  0.79224081  0.40054528  0.95129114    -0.02400
H715        H  0.80382646  0.33400923  0.91337888     0.05000
C716        C  0.86534131  0.41596362  0.91189896     0.20500
H717        H  0.78853914  0.41960576  0.96150968     0.10200
C718        C  0.85794422  0.42189517  0.89376754    -0.15800
C719        C  0.89100149  0.43882920  0.88099852     0.03200
C720        C  0.93322306  0.45228006  0.88649430    -0.11100
C721        C  0.93913324  0.44295373  0.90455999    -0.01100
C722        C  0.90606276  0.42550369  0.91710696    -0.06300
H723        H  0.82598552  0.41233084  0.88943497     0.06200
H724        H  0.96893459  0.44689930  0.90912886     0.09600
Br725      Br  0.86250916  0.48085443  0.94037389    -0.06000
Br726      Br  0.72854067  0.27319041  0.93360261    -0.02900
Br727      Br  0.87496504  0.43883420  0.85617319    -0.00100
Br728      Br  0.91745967  0.41242008  0.94096963    -0.04500
C729        C  0.62432013  0.24209614  0.95074726    -0.11900
C730        C  0.59754859  0.24168891  0.93678360     0.03600
C731        C  0.58014253  0.20866088  0.92415228    -0.12400
C732        C  0.58800850  0.17506292  0.92529404     0.18500
C733        C  0.61247776  0.17383230  0.93978373    -0.09400
C734        C  0.63060321  0.20727980  0.95226582    -0.02400
H735        H  0.56034538  0.20919339  0.91331620     0.05000
C736        C  0.57104407  0.14208225  0.91104363     0.20500
H737        H  0.65150306  0.20702078  0.96262016     0.10200
C738        C  0.59099972  0.15091776  0.89407250    -0.15800
C739        C  0.57643819  0.11988953  0.88044046     0.03200
C740        C  0.54266955  0.07802289  0.88410409    -0.11100
C741        C  0.51985869  0.07160557  0.90044143    -0.01100
C742        C  0.53397199  0.10280557  0.91383553    -0.06300
H743        H  0.61778402  0.18235713  0.89135035     0.06200
H744        H  0.49049660  0.04223250  0.90297331     0.09600
Br745      Br  0.62352326  0.12808769  0.94254157    -0.06000
Br746      Br  0.58143917  0.28373086  0.93447012    -0.02900
Br747      Br  0.60137047  0.13869529  0.85686760    -0.00100
Br748      Br  0.50101462  0.09083635  0.93557653    -0.04500
C749        C  0.54835037  0.44948017  0.89037079    -0.11900
C750        C  0.52422457  0.41105680  0.90035615     0.03600
C751        C  0.54419437  0.39790367  0.91282354    -0.12400
C752        C  0.58693385  0.42436293  0.91748612     0.18500
C753        C  0.60984320  0.46472228  0.90918125    -0.09400
C754        C  0.59091606  0.47648683  0.89565025    -0.02400
H755        H  0.52577518  0.36706017  0.91927541     0.05000
C756        C  0.60767023  0.40874203  0.93026357     0.20500
H757        H  0.60941058  0.50820118  0.89008743     0.10200
C758        C  0.64511018  0.41057222  0.92474587    -0.15800
C759        C  0.66623671  0.39650629  0.93596250     0.03200
C760        C  0.64827444  0.37652331  0.95274489    -0.11100
C761        C  0.61029839  0.37424691  0.95822552    -0.01100
C762        C  0.59072081  0.39118159  0.94745122    -0.06300
H763        H  0.65852512  0.42373122  0.91157819     0.06200
H764        H  0.59501385  0.35838440  0.97075209     0.09600
Br765      Br  0.66601968  0.50672241  0.91682577    -0.06000
Br766      Br  0.46331961  0.37679293  0.89951396    -0.02900
Br767      Br  0.72085132  0.40912894  0.92757489    -0.00100
Br768      Br  0.54203128  0.39084148  0.95727774    -0.04500
C769        C  0.79226052  0.20573596  0.71390519    -0.11900
C770        C  0.81322467  0.24945309  0.70873836     0.03600
C771        C  0.79328622  0.26407410  0.69695861    -0.12400
C772        C  0.75477073  0.23594494  0.68851815     0.18500
C773        C  0.73608576  0.19214725  0.69197686    -0.09400
C774        C  0.75425432  0.17766533  0.70470930    -0.02400
H775        H  0.80922222  0.29758135  0.69352898     0.05000
C776        C  0.73711896  0.25256171  0.67477914     0.20500
H777        H  0.73958055  0.14366524  0.70661137     0.10200
C778        C  0.76273838  0.27686829  0.66021979    -0.15800
C779        C  0.74762447  0.29383080  0.64716067     0.03200
C780        C  0.70483100  0.28346810  0.64764001    -0.11100
C781        C  0.67962229  0.25990898  0.66247411    -0.01100
C782        C  0.69590668  0.24606994  0.67630987    -0.06300
H783        H  0.79527532  0.28406469  0.65939549     0.06200
H784        H  0.64735530  0.25338526  0.66364678     0.09600
Br785      Br  0.68873916  0.15032292  0.67813116    -0.06000
Br786      Br  0.87134528  0.29082752  0.71409013    -0.02900
Br787      Br  0.78900773  0.33602348  0.63124307    -0.00100
Br788      Br  0.66227693  0.22260577  0.69780176    -0.04500
C789        C  0.58097824  0.28418702  0.64417723    -0.11900
C790        C  0.54853109  0.24113592  0.64486412     0.03600
C791        C  0.51578866  0.22809013  0.65751683    -0.12400
C792        C  0.51535202  0.25725195  0.66970358     0.18500
C793        C  0.54743489  0.30020830  0.66886518    -0.09400
C794        C  0.57975664  0.31336128  0.65610717    -0.02400
H795        H  0.49116842  0.19488573  0.65820668     0.05000
C796        C  0.48148951  0.24213412  0.68337788     0.20500
H797        H  0.60462415  0.34652590  0.65571819     0.10200
C798        C  0.49066989  0.23896018  0.70155504    -0.15800
C799        C  0.45870978  0.22314435  0.71473247     0.03200
C800        C  0.41603434  0.20851610  0.70964996    -0.11100
C801        C  0.40840798  0.21581250  0.69153036    -0.01100
C802        C  0.44032122  0.23152491  0.67847633    -0.06300
H803        H  0.52288982  0.24875018  0.70548599     0.06200
H804        H  0.37795686  0.21031573  0.68711327     0.09600
Br805      Br  0.54856936  0.34191537  0.68493450    -0.06000
Br806      Br  0.54894279  0.19831604  0.63008727    -0.02900
Br807      Br  0.47622060  0.22350883  0.73935226    -0.00100
Br808      Br  0.42635971  0.23869284  0.65409317    -0.04500
C809        C  0.78770155  0.56237508  0.71472653    -0.11900
C810        C  0.74595421  0.54474817  0.70755961     0.03600
C811        C  0.73151500  0.51317028  0.69428426    -0.12400
C812        C  0.75892040  0.50195236  0.68610010     0.18500
C813        C  0.80198296  0.52391165  0.69117108    -0.09400
C814        C  0.81560042  0.55262228  0.70559903    -0.02400
H815        H  0.69891568  0.49859548  0.68969790     0.05000
C816        C  0.74221177  0.46884863  0.67177382     0.20500
H817        H  0.84907614  0.56946067  0.70881832     0.10200
C818        C  0.71805966  0.47122807  0.65739441    -0.15800
C819        C  0.69894493  0.43866552  0.64451177     0.03200
C820        C  0.70673362  0.40462883  0.64507935    -0.11100
C821        C  0.73116522  0.40265178  0.65936181    -0.01100
C822        C  0.74701390  0.43301552  0.67303167    -0.06300
H823        H  0.71240832  0.49757526  0.65666715     0.06200
H824        H  0.73616679  0.37592045  0.66044401     0.09600
Br825      Br  0.84450210  0.52004158  0.67744917    -0.06000
Br826      Br  0.70840682  0.56588586  0.71253762    -0.02900
Br827      Br  0.65811374  0.43949010  0.62842792    -0.00100
Br828      Br  0.76946767  0.42038943  0.69418887    -0.04500
C829        C  0.92465402  0.95881099  0.31695073    -0.11900
C830        C  0.89788024  0.97617157  0.31548938     0.03600
C831        C  0.86496974  0.96439005  0.32807669    -0.12400
C832        C  0.85991972  0.93751088  0.34271972     0.18500
C833        C  0.88919068  0.92389398  0.34515666    -0.09400
C834        C  0.92089527  0.93450208  0.33239684    -0.02400
H835        H  0.84360743  0.97654622  0.32656847     0.05000
C836        C  0.82320439  0.92178785  0.35501063     0.20500
H837        H  0.94277040  0.92365281  0.33477627     0.10200
C838        C  0.79341974  0.87829845  0.35495815    -0.15800
C839        C  0.76073751  0.86038748  0.36765097     0.03200
C840        C  0.75662982  0.88638719  0.38083094    -0.11100
C841        C  0.78634563  0.93054299  0.38039775    -0.01100
C842        C  0.81935443  0.94814220  0.36770141    -0.06300
H843        H  0.79636034  0.85786130  0.34518500     0.06200
H844        H  0.78484786  0.95218363  0.38978921     0.09600
Br845      Br  0.88794247  0.89148471  0.36599617    -0.06000
Br846      Br  0.90803501  0.02025732  0.29847288    -0.02900
Br847      Br  0.72336522  0.79979816  0.36591194    -0.00100
Br848      Br  0.85948181  0.00803816  0.36871407    -0.04500
C849        C  0.12611852  0.23405120  0.38002757    -0.11900
C850        C  0.15401122  0.22560402  0.36983454     0.03600
C851        C  0.13788353  0.19219015  0.35746569    -0.12400
C852        C  0.09427201  0.16604308  0.35494034     0.18500
C853        C  0.06618347  0.17205922  0.36568241    -0.09400
C854        C  0.08199313  0.20590385  0.37790887    -0.02400
H855        H  0.15960870  0.18675887  0.34958146     0.05000
C856        C  0.07906875  0.13139374  0.34161142     0.20500
H857        H  0.05895638  0.20984730  0.38521007     0.10200
C858        C  0.08632319  0.09801001  0.34502613    -0.15800
C859        C  0.07297054  0.06451215  0.33284477     0.03200
C860        C  0.05140638  0.06370106  0.31673004    -0.11100
C861        C  0.04442264  0.09769004  0.31340483    -0.01100
C862        C  0.05888631  0.13175726  0.32543700    -0.06300
H863        H  0.10257466  0.09806758  0.35734464     0.06200
H864        H  0.02669651  0.09750663  0.30161105     0.09600
Br865      Br  0.00589282  0.13420903  0.36439614    -0.06000
Br866      Br  0.21478671  0.25807695  0.37151482    -0.02900
Br867      Br  0.08701906  0.02260540  0.33948887    -0.00100
Br868      Br  0.05152035  0.17857239  0.31897616    -0.04500
C869        C  0.13771663  0.87139944  0.37794268    -0.11900
C870        C  0.15919420  0.88786314  0.36118401     0.03600
C871        C  0.14032477  0.89900966  0.34741531    -0.12400
C872        C  0.10348106  0.90064718  0.35060613     0.18500
C873        C  0.08572275  0.89077947  0.36822789    -0.09400
C874        C  0.10185159  0.87498014  0.38139668    -0.02400
H875        H  0.15500740  0.90689371  0.33417860     0.05000
C876        C  0.08311784  0.91111999  0.33546337     0.20500
H877        H  0.08713738  0.86741529  0.39459975     0.10200
C878        C  0.03914745  0.88531340  0.33304782    -0.15800
C879        C  0.01705453  0.89709982  0.32123277     0.03200
C880        C  0.03937951  0.93337122  0.31014482    -0.11100
C881        C  0.08383843  0.95570016  0.31057247    -0.01100
C882        C  0.10582306  0.94614854  0.32357833    -0.06300
H883        H  0.02139623  0.85691823  0.34123565     0.06200
H884        H  0.10130656  0.98370112  0.30216988     0.09600
Br885      Br  0.04147133  0.90119120  0.37568040    -0.06000
Br886      Br  0.21565045  0.89913864  0.35619987    -0.02900
Br887      Br  0.95654809  0.86266898  0.32164498    -0.00100
Br888      Br  0.16538097  0.98650650  0.32610708    -0.04500
C889        C  0.08484566  0.02190709  0.65885010    -0.11900
C890        C  0.11920655  0.06398442  0.65747281     0.03600
C891        C  0.15303532  0.07838113  0.66967736    -0.12400
C892        C  0.15297511  0.05203863  0.68365286     0.18500
C893        C  0.11895532  0.00982930  0.68482673    -0.09400
C894        C  0.08615165  0.99493331  0.67211519    -0.02400
H895        H  0.17897987  0.11098924  0.66866888     0.05000
C896        C  0.18742221  0.07062580  0.69734157     0.20500
H897        H  0.06077185  0.96211175  0.67280878     0.10200
C898        C  0.19477144  0.10734461  0.70659793    -0.15800
C899        C  0.23069526  0.13007955  0.71748831     0.03200
C900        C  0.25879629  0.11490985  0.72005007    -0.11100
C901        C  0.25023082  0.07695885  0.71167036    -0.01100
C902        C  0.21568666  0.05547895  0.69995875    -0.06300
H903        H  0.17383343  0.11983035  0.70443512     0.06200
H904        H  0.27287544  0.06625093  0.71288857     0.09600
Br905      Br  0.11325429  0.97245527  0.70443469    -0.06000
Br906      Br  0.12068899  0.10455615  0.64048995    -0.02900
Br907      Br  0.24277176  0.18421946  0.72654421    -0.00100
Br908      Br  0.21303402  0.01011669  0.68585697    -0.04500
C909        C  0.96566775  0.03663543  0.65890432    -0.11900
C910        C  0.98857417  0.06443192  0.67337561     0.03600
C911        C  0.97003962  0.08263571  0.68374868    -0.12400
C912        C  0.92906079  0.07428543  0.68002247     0.18500
C913        C  0.90669107  0.04812176  0.66525923    -0.09400
C914        C  0.92474071  0.02909829  0.65501772    -0.02400
H915        H  0.98780027  0.10363682  0.69482121     0.05000
C916        C  0.91069778  0.09384495  0.69159994     0.20500
H917        H  0.90640144  0.00788696  0.64411403     0.10200
C918        C  0.92635414  0.13763698  0.69016283    -0.15800
C919        C  0.90943095  0.15715586  0.70074181     0.03200
C920        C  0.87636185  0.13271269  0.71310135    -0.11100
C921        C  0.86198908  0.08923778  0.71509555    -0.01100
C922        C  0.87887915  0.06971317  0.70444115    -0.06300
H923        H  0.95158034  0.15660510  0.68064979     0.06200
H924        H  0.83669328  0.07017843  0.72456404     0.09600
Br925      Br  0.85187543  0.03837253  0.65840067    -0.06000
Br926      Br  0.04625677  0.08206322  0.67925187    -0.02900
Br927      Br  0.93348488  0.21748785  0.69816657    -0.00100
Br928      Br  0.85782156  0.01014679  0.70789092    -0.04500
C929        C  0.95056008  0.90635631  0.66646657    -0.11900
C930        C  0.96355401  0.90685007  0.68492596     0.03600
C931        C  0.94447960  0.86948801  0.69526277    -0.12400
C932        C  0.91118951  0.83172011  0.68850660     0.18500
C933        C  0.89453681  0.83176643  0.67141411    -0.09400
C934        C  0.91344142  0.86883656  0.66087597    -0.02400
H935        H  0.95552390  0.86980132  0.70896412     0.05000
C936        C  0.89416159  0.79299576  0.69978928     0.20500
H937        H  0.89803505  0.86783246  0.64831598     0.10200
C938        C  0.85446011  0.77670276  0.70811553    -0.15800
C939        C  0.83737212  0.73955028  0.71856076     0.03200
C940        C  0.86064163  0.71889358  0.72113634    -0.11100
C941        C  0.90085432  0.73587142  0.71323622    -0.01100
C942        C  0.91767442  0.77262596  0.70256932    -0.06300
H943        H  0.83631117  0.79237095  0.70609350     0.06200
H944        H  0.91841405  0.71944862  0.71476158     0.09600
Br945      Br  0.84698437  0.78149506  0.66160344    -0.06000
Br946      Br  0.00281314  0.95445949  0.69933726    -0.02900
Br947      Br  0.78102354  0.71656103  0.72782557    -0.00100
Br948      Br  0.97154494  0.79231900  0.69107636    -0.04500
C949        C  0.58227610  0.28308114  0.60216116    -0.11900
C950        C  0.57532033  0.25567577  0.58742898     0.03600
C951        C  0.53929703  0.24143320  0.57667506    -0.12400
C952        C  0.50921499  0.25318039  0.58040158     0.18500
C953        C  0.51566497  0.28019458  0.59512645    -0.09400
C954        C  0.55252652  0.29578347  0.60555334    -0.02400
H955        H  0.53402116  0.21992816  0.56556528     0.05000
C956        C  0.47003849  0.23379762  0.56950394     0.20500
H957        H  0.55753574  0.31736706  0.61656057     0.10200
C958        C  0.44312185  0.18958936  0.57041609    -0.15800
C959        C  0.40667049  0.16923781  0.55977044     0.03200
C960        C  0.39630137  0.19336282  0.54815586    -0.11100
C961        C  0.42388978  0.23741720  0.54675281    -0.01100
C962        C  0.46081960  0.25775043  0.55726335    -0.06300
H963        H  0.45079220  0.17079026  0.57935207     0.06200
H964        H  0.41629098  0.25610221  0.53771952     0.09600
Br965      Br  0.47386071  0.29410412  0.60237317    -0.06000
Br966      Br  0.61095324  0.23293914  0.58189997    -0.02900
Br967      Br  0.37337641  0.10826501  0.56090609    -0.00100
Br968      Br  0.49836162  0.31773984  0.55399897    -0.04500
C969        C  0.07673266  0.01876788  0.61588939    -0.11900
C970        C  0.11282369  0.01413852  0.61618613     0.03600
C971        C  0.14438658  0.03445998  0.60296717    -0.12400
C972        C  0.13981129  0.05729297  0.58861379     0.18500
C973        C  0.10236164  0.05911003  0.58753779    -0.09400
C974        C  0.07226428  0.04137325  0.60134995    -0.02400
H975        H  0.17227978  0.03138687  0.60361082     0.05000
C976        C  0.17329625  0.07652201  0.57444910     0.20500
H977        H  0.04467198  0.04482171  0.60046189     0.10200
C978        C  0.18730440  0.05130312  0.56624018    -0.15800
C979        C  0.22106224  0.06853093  0.55391812     0.03200
C980        C  0.23869989  0.11125445  0.54776642    -0.11100
C981        C  0.22537707  0.13665679  0.55671093    -0.01100
C982        C  0.19409941  0.12013903  0.57014490    -0.06300
H983        H  0.17339059  0.01826445  0.57026133     0.06200
H984        H  0.24147349  0.17057909  0.55425973     0.09600
Br985      Br  0.08838696  0.08167912  0.56679742    -0.06000
Br986      Br  0.11978084  0.97736081  0.63258845    -0.02900
Br987      Br  0.24457346  0.03295830  0.54902683    -0.00100
Br988      Br  0.18553516  0.15986656  0.58382664    -0.04500
C989        C  0.70672650  0.28008236  0.60503650    -0.11900
C990        C  0.69249891  0.23631668  0.60560625     0.03600
C991        C  0.70989688  0.21957971  0.59372164    -0.12400
C992        C  0.74405918  0.24622936  0.58233016     0.18500
C993        C  0.75873859  0.29027465  0.58210446    -0.09400
C994        C  0.73870603  0.30631283  0.59278692    -0.02400
H995        H  0.69712986  0.18556697  0.59361755     0.05000
C996        C  0.76438234  0.22771366  0.57117236     0.20500
H997        H  0.74967741  0.34000124  0.59225585     0.10200
C998        C  0.77170753  0.23764167  0.55264909    -0.15800
C999        C  0.79565565  0.22537317  0.54221991     0.03200
C1000       C  0.80952742  0.19876682  0.54993571    -0.11100
C1001       C  0.79716433  0.18490436  0.56801166    -0.01100
C1002       C  0.77741037  0.20085440  0.57881735    -0.06300
H1003       H  0.76045926  0.25704094  0.54642715     0.06200
H1004       H  0.80396755  0.16226096  0.57433250     0.09600
Br1005     Br  0.80808534  0.33098089  0.56885890    -0.06000
Br1006     Br  0.64803072  0.19747831  0.62146847    -0.02900
Br1007     Br  0.80990488  0.25033153  0.51853520    -0.00100
Br1008     Br  0.77344130  0.18775030  0.60429814    -0.04500
C1009       C  0.89725733  0.12799648  0.55238463    -0.11900
C1010       C  0.92561241  0.11497160  0.54611961     0.03600
C1011       C  0.94016963  0.09503816  0.55808584    -0.12400
C1012       C  0.92527046  0.08562702  0.57597046     0.18500
C1013       C  0.89452744  0.09489207  0.58176028    -0.09400
C1014       C  0.88033449  0.11492792  0.57003841    -0.02400
H1015       H  0.96252226  0.08608416  0.55334108     0.05000
C1016       C  0.94117236  0.06572094  0.58870866     0.20500
H1017       H  0.85452819  0.11853195  0.57485847     0.10200
C1018       C  0.97172082  0.09144843  0.60149173    -0.15800
C1019       C  0.98409624  0.07361727  0.61526715     0.03200
C1020       C  0.96519844  0.02896055  0.61656543    -0.11100
C1021       C  0.93498974  0.00339644  0.60350935    -0.01100
C1022       C  0.92281045  0.02136663  0.58970307    -0.06300
H1023       H  0.98575673  0.12565049  0.60080759     0.06200
H1024       H  0.92072508  0.96922031  0.60404179     0.09600
Br1025     Br  0.86964940  0.07917711  0.60550053    -0.06000
Br1026     Br  0.94280339  0.11931591  0.52124601    -0.02900
Br1027     Br  0.02872281  0.11258370  0.63087473    -0.00100
Br1028     Br  0.88022745  0.98425825  0.57281079    -0.04500
C1029       C  0.70408803  0.40354511  0.60185889    -0.11900
C1030       C  0.74600745  0.43803942  0.60282096     0.03600
C1031       C  0.75928254  0.47239636  0.59091804    -0.12400
C1032       C  0.73230449  0.47211124  0.57724896     0.18500
C1033       C  0.69150784  0.43614995  0.57538727    -0.09400
C1034       C  0.67746119  0.40277045  0.58787966    -0.02400
H1035       H  0.79140156  0.49905479  0.59198124     0.05000
C1036       C  0.74902041  0.50868254  0.56455435     0.20500
H1037       H  0.64565067  0.37575015  0.58652560     0.10200
C1038       C  0.78659505  0.52003713  0.55514662    -0.15800
C1039       C  0.80801216  0.55824407  0.54552223     0.03200
C1040       C  0.79068179  0.58483858  0.54426468    -0.11100
C1041       C  0.75216981  0.57277700  0.55304780    -0.01100
C1042       C  0.73171877  0.53547927  0.56346038    -0.06300
H1043       H  0.80087070  0.50040991  0.55633263     0.06200
H1044       H  0.73954675  0.59393418  0.55281105     0.09600
Br1045     Br  0.65517478  0.42935623  0.55527991    -0.06000
Br1046     Br  0.78804639  0.43798878  0.61835652    -0.02900
Br1047     Br  0.86393550  0.57553612  0.53715362    -0.00100
Br1048     Br  0.68385412  0.52592670  0.57776346    -0.04500
C1049       C  0.95159170  0.89737152  0.62343307    -0.11900
C1050       C  0.97362671  0.87580159  0.62029488     0.03600
C1051       C  0.96146669  0.84682102  0.60599095    -0.12400
C1052       C  0.92539283  0.83650370  0.59542868     0.18500
C1053       C  0.89997337  0.85378606  0.60042662    -0.09400
C1054       C  0.91439534  0.88556023  0.61361677    -0.02400
H1055       H  0.98044713  0.83251014  0.60309896     0.05000
C1056       C  0.91357705  0.80603342  0.58007588     0.20500
H1057       H  0.89610845  0.90062711  0.61650108     0.10200
C1058       C  0.91462714  0.76848141  0.58256607    -0.15800
C1059       C  0.90157314  0.73809041  0.56885620     0.03200
C1060       C  0.88182943  0.74220744  0.55298761    -0.11100
C1061       C  0.88520253  0.78187452  0.54973838    -0.01100
C1062       C  0.90268439  0.81421834  0.56275239    -0.06300
H1063       H  0.92603554  0.76274949  0.59520975     0.06200
H1064       H  0.87608978  0.78878047  0.53681868     0.09600
Br1065     Br  0.84389452  0.83291579  0.59091820    -0.06000
Br1066     Br  0.01995093  0.88449824  0.63535810    -0.02900
Br1067     Br  0.91426906  0.69343166  0.57249794    -0.00100
Br1068     Br  0.91529005  0.87007032  0.55544025    -0.04500
C1069       C  0.21485325  0.79388875  0.38899626    -0.11900
C1070       C  0.19977207  0.74994031  0.38905316     0.03600
C1071       C  0.22004086  0.73374307  0.37849162    -0.12400
C1072       C  0.25434190  0.76059339  0.36724661     0.18500
C1073       C  0.26974795  0.80465734  0.36738888    -0.09400
C1074       C  0.25063016  0.82095899  0.37853815    -0.02400
H1075       H  0.20739737  0.69971798  0.37819617     0.05000
C1076       C  0.26986960  0.74152506  0.35387259     0.20500
H1077       H  0.26159817  0.85466068  0.37792914     0.10200
C1078       C  0.24164368  0.71411016  0.34068761    -0.15800
C1079       C  0.25466508  0.69520157  0.32774845     0.03200
C1080       C  0.29736802  0.70545677  0.32723574    -0.11100
C1081       C  0.32538489  0.73251698  0.34063585    -0.01100
C1082       C  0.31177736  0.74965478  0.35411974    -0.06300
H1083       H  0.20891970  0.70649175  0.34077768     0.06200
H1084       H  0.35780231  0.73924360  0.34098768     0.09600
Br1085     Br  0.31252785  0.84315437  0.35077455    -0.06000
Br1086     Br  0.14869129  0.71012951  0.40125702    -0.02900
Br1087     Br  0.21127855  0.65197252  0.31303388    -0.00100
Br1088     Br  0.35046107  0.78089688  0.37336504    -0.04500
C1089       C  0.20543530  0.39285109  0.37812309    -0.11900
C1090       C  0.23788305  0.40215687  0.36549201     0.03600
C1091       C  0.25346967  0.43819287  0.35453415    -0.12400
C1092       C  0.23848306  0.46647572  0.35630870     0.18500
C1093       C  0.20704051  0.45810656  0.36935280    -0.09400
C1094       C  0.19068207  0.42135769  0.38012388    -0.02400
H1095       H  0.27797607  0.44456924  0.34469595     0.05000
C1096       C  0.25731586  0.50492477  0.34470460     0.20500
H1097       H  0.16577278  0.41455538  0.38978362     0.10200
C1098       C  0.23204120  0.51081294  0.33199211    -0.15800
C1099       C  0.24964416  0.54679709  0.32070989     0.03200
C1100       C  0.29327424  0.57691239  0.32189517    -0.11100
C1101       C  0.31872772  0.56930842  0.33365014    -0.01100
C1102       C  0.30111844  0.53459599  0.34542545    -0.06300
H1103       H  0.19850815  0.48748286  0.33093904     0.06200
H1104       H  0.35271083  0.59097238  0.33374327     0.09600
Br1105     Br  0.18625860  0.49625206  0.37322178    -0.06000
Br1106     Br  0.26411586  0.36843998  0.36328151    -0.02900
Br1107     Br  0.21309078  0.55334551  0.30404972    -0.00100
Br1108     Br  0.33790811  0.53073014  0.36298764    -0.04500
C1109       C  0.41660248  0.70797117  0.33090383    -0.11900
C1110       C  0.41638459  0.69367431  0.34906120     0.03600
C1111       C  0.45243122  0.71505349  0.35996080    -0.12400
C1112       C  0.48897018  0.75107998  0.35384126     0.18500
C1113       C  0.48914755  0.76714067  0.33651986    -0.09400
C1114       C  0.45296196  0.74657923  0.32559752    -0.02400
H1115       H  0.45217750  0.70330228  0.37351154     0.05000
C1116       C  0.52680169  0.76972570  0.36564276     0.20500
H1117       H  0.45373919  0.76168466  0.31292953     0.10200
C1118       C  0.54614928  0.74574198  0.36932560    -0.15800
C1119       C  0.58235706  0.76213914  0.38017348     0.03200
C1120       C  0.59970046  0.80314312  0.38749469    -0.11100
C1121       C  0.57926009  0.82634866  0.38459654    -0.01100
C1122       C  0.54264044  0.80970081  0.37391088    -0.06300
H1123       H  0.53344744  0.71443086  0.36343385     0.06200
H1124       H  0.59255963  0.85798298  0.39021755     0.09600
Br1125     Br  0.53871237  0.81567327  0.32671476    -0.06000
Br1126     Br  0.37075630  0.64715728  0.36180548    -0.02900
Br1127     Br  0.60790151  0.72809443  0.38406076    -0.00100
Br1128     Br  0.51507126  0.84222219  0.37122110    -0.04500
C1129       C  0.12629701  0.85938768  0.20847941    -0.11900
C1130       C  0.08260023  0.84466033  0.20774258     0.03600
C1131       C  0.06621146  0.86612902  0.21729318    -0.12400
C1132       C  0.09231918  0.90049348  0.22866389     0.18500
C1133       C  0.13612804  0.91508469  0.22939040    -0.09400
C1134       C  0.15283443  0.89562492  0.21876083    -0.02400
H1135       H  0.03234513  0.85382328  0.21700550     0.05000
C1136       C  0.07224339  0.91563757  0.24170047     0.20500
H1137       H  0.18628039  0.90619219  0.21994555     0.10200
C1138       C  0.03978444  0.88567143  0.25293622    -0.15800
C1139       C  0.02052417  0.89823132  0.26581957     0.03200
C1140       C  0.03590014  0.94173668  0.26866586    -0.11100
C1141       C  0.06707176  0.97152406  0.25690296    -0.01100
C1142       C  0.08433304  0.95879716  0.24316416    -0.06300
H1143       H  0.02858390  0.85207657  0.25137605     0.06200
H1144       H  0.07710272  0.00488611  0.25798362     0.09600
Br1145     Br  0.17353004  0.95573720  0.24692760    -0.06000
Br1146     Br  0.04303143  0.79173305  0.19671306    -0.02900
Br1147     Br  0.96965616  0.85450757  0.27675528    -0.00100
Br1148     Br  0.12115071  0.00100114  0.22592144    -0.04500
C1149       C  0.20800213  0.78415571  0.22041976    -0.11900
C1150       C  0.23008541  0.76359885  0.21462347     0.03600
C1151       C  0.25051282  0.75135401  0.22730396    -0.12400
C1152       C  0.24973321  0.75916628  0.24583634     0.18500
C1153       C  0.22913824  0.78036559  0.25170442    -0.09400
C1154       C  0.20908872  0.79297830  0.23918998    -0.02400
H1155       H  0.26650789  0.73498275  0.22273493     0.05000
C1156       C  0.26742869  0.74204399  0.25909534     0.20500
H1157       H  0.19517458  0.80972098  0.24480051     0.10200
C1158       C  0.30375192  0.76969801  0.26918547    -0.15800
C1159       C  0.31985740  0.75363311  0.28226795     0.03200
C1160       C  0.29976616  0.70948576  0.28507287    -0.11100
C1161       C  0.26290965  0.68234311  0.27540704    -0.01100
C1162       C  0.24656046  0.69813630  0.26253743    -0.06300
H1163       H  0.31935216  0.80366951  0.26692116     0.06200
H1164       H  0.24692442  0.64837255  0.27777996     0.09600
Br1165     Br  0.22554809  0.79107929  0.27694606    -0.06000
Br1166     Br  0.23417874  0.75122750  0.18965221    -0.02900
Br1167     Br  0.36873879  0.79270146  0.29601380    -0.00100
Br1168     Br  0.19512238  0.65849080  0.25031867    -0.04500
C1169       C  0.05544882  0.06877175  0.27473870    -0.11900
C1170       C  0.09955665  0.08807346  0.27230944     0.03600
C1171       C  0.12033078  0.12175240  0.26000219    -0.12400
C1172       C  0.09820124  0.13828474  0.25073213     0.18500
C1173       C  0.05409853  0.11951517  0.25366268    -0.09400
C1174       C  0.03322858  0.08479245  0.26538014    -0.02400
H1175       H  0.15407348  0.13541967  0.25780017     0.05000
C1176       C  0.12153844  0.17578779  0.23860106     0.20500
H1177       H  0.99951040  0.07093056  0.26762703     0.10200
C1178       C  0.10759101  0.17408488  0.22074474    -0.15800
C1179       C  0.12375804  0.21073666  0.20991954     0.03200
C1180       C  0.15703428  0.25021863  0.21657547    -0.11100
C1181       C  0.17475786  0.24969277  0.23356136    -0.01100
C1182       C  0.15628330  0.21400707  0.24482785    -0.06300
H1183       H  0.08193826  0.14428504  0.21555411     0.06200
H1184       H  0.20216587  0.27799252  0.23876493     0.09600
Br1185     Br  0.02069086  0.14083379  0.24285085    -0.06000
Br1186     Br  0.13272236  0.06950225  0.28531193    -0.02900
Br1187     Br  0.09518796  0.20251239  0.18726579    -0.00100
Br1188     Br  0.17706183  0.22147707  0.26928493    -0.04500
C1189       C  0.30839884  0.58762957  0.28013556    -0.11900
C1190       C  0.29334942  0.58640375  0.26218313     0.03600
C1191       C  0.27914276  0.55002776  0.25163646    -0.12400
C1192       C  0.27904575  0.51405479  0.25818722     0.18500
C1193       C  0.29802697  0.51644452  0.27510122    -0.09400
C1194       C  0.31336469  0.55327293  0.28558062    -0.02400
H1195       H  0.26706246  0.54938443  0.23815022     0.05000
C1196       C  0.25933975  0.47537993  0.24669640     0.20500
H1197       H  0.32901228  0.55457481  0.29815948     0.10200
C1198       C  0.28318728  0.45734553  0.24105905    -0.15800
C1199       C  0.26620094  0.42282849  0.22915505     0.03200
C1200       C  0.22597873  0.40850762  0.22086819    -0.11100
C1201       C  0.20148742  0.42550479  0.22737125    -0.01100
C1202       C  0.21743892  0.45790235  0.24028843    -0.06300
H1203       H  0.31514776  0.46982705  0.24612141     0.06200
H1204       H  0.16894910  0.41253409  0.22313127     0.09600
Br1205     Br  0.30207846  0.47006452  0.28515987    -0.06000
Br1206     Br  0.29005447  0.63082584  0.24983725    -0.02900
Br1207     Br  0.29885318  0.39527007  0.22643740    -0.00100
Br1208     Br  0.17963123  0.47539054  0.24957396    -0.04500
C1209       C  0.91914976  0.95297778  0.27351779    -0.11900
C1210       C  0.88336680  0.91165556  0.27540439     0.03600
C1211       C  0.85093606  0.89631706  0.26244293    -0.12400
C1212       C  0.85416094  0.92035579  0.24700658     0.18500
C1213       C  0.88984017  0.96117202  0.24494272    -0.09400
C1214       C  0.92143235  0.97720660  0.25820016    -0.02400
H1215       H  0.82356913  0.86468449  0.26408062     0.05000
C1216       C  0.81952067  0.90250649  0.23345931     0.20500
H1217       H  0.94884739  0.00841558  0.25607947     0.10200
C1218       C  0.79530638  0.92202059  0.23098131    -0.15800
C1219       C  0.75909905  0.90322402  0.22008679     0.03200
C1220       C  0.74637100  0.86408196  0.21160726    -0.11100
C1221       C  0.77184129  0.84574443  0.21315033    -0.01100
C1222       C  0.80843785  0.86481707  0.22393397    -0.06300
H1223       H  0.80364624  0.95111371  0.23814011     0.06200
H1224       H  0.76205304  0.81546808  0.20675443     0.09600
Br1225     Br  0.89866934  0.99478774  0.22354396    -0.06000
Br1226     Br  0.87853436  0.87200204  0.29367552    -0.02900
Br1227     Br  0.72636291  0.93071216  0.21802261    -0.00100
Br1228     Br  0.84182835  0.83796455  0.22554815    -0.04500
C1229       C  0.58873567  0.78001694  0.22136455    -0.11900
C1230       C  0.54642022  0.74790503  0.21727009     0.03600
C1231       C  0.51487449  0.73343086  0.23072757    -0.12400
C1232       C  0.52376700  0.75191974  0.24799721     0.18500
C1233       C  0.56426953  0.78639855  0.25157282    -0.09400
C1234       C  0.59577634  0.80049544  0.23835831    -0.02400
H1235       H  0.48286184  0.70852802  0.22753217     0.05000
C1236       C  0.48972742  0.73743048  0.26171080     0.20500
H1237       H  0.62553394  0.82883429  0.24148114     0.10200
C1238       C  0.48213907  0.70428606  0.27369785    -0.15800
C1239       C  0.44968345  0.68981642  0.28668339     0.03200
C1240       C  0.42455807  0.70884373  0.28780635    -0.11100
C1241       C  0.43284048  0.74244882  0.27598642    -0.01100
C1242       C  0.46524576  0.75700250  0.26313598    -0.06300
H1243       H  0.50100090  0.68918857  0.27272357     0.06200
H1244       H  0.41313707  0.75663185  0.27640420     0.09600
Br1245     Br  0.57760893  0.81640935  0.27416947    -0.06000
Br1246     Br  0.52778415  0.72545897  0.19335059    -0.02900
Br1247     Br  0.43862735  0.64198962  0.30152465    -0.00100
Br1248     Br  0.47426272  0.80300722  0.24749939    -0.04500
C1249       C  0.47511756  0.91985133  0.87746276    -0.11900
C1250       C  0.50107458  0.91037099  0.88827808     0.03600
C1251       C  0.48279655  0.87398670  0.89918248    -0.12400
C1252       C  0.43872289  0.84655906  0.89950925     0.18500
C1253       C  0.41293175  0.85477097  0.88794314    -0.09400
C1254       C  0.43127370  0.89129158  0.87697389    -0.02400
H1255       H  0.50291726  0.86782871  0.90793959     0.05000
C1256       C  0.42051286  0.81117098  0.91280198     0.20500
H1257       H  0.41109651  0.89855320  0.86880757     0.10200
C1258       C  0.39802818  0.81312604  0.92777331    -0.15800
C1259       C  0.38198144  0.78115427  0.94107618     0.03200
C1260       C  0.38941016  0.74681865  0.93980028    -0.11100
C1261       C  0.41152098  0.74494231  0.92455421    -0.01100
C1262       C  0.42703799  0.77660695  0.91121001    -0.06300
H1263       H  0.39258986  0.83953767  0.92900932     0.06200
H1264       H  0.41689518  0.71866989  0.92296892     0.09600
Br1265     Br  0.35261059  0.81757544  0.88704854    -0.06000
Br1266     Br  0.56152931  0.94739063  0.88927412    -0.02900
Br1267     Br  0.34733479  0.78497544  0.95945314    -0.00100
Br1268     Br  0.45565350  0.77054338  0.89069840    -0.04500
C1269       C  0.26351198  0.62279411  0.93994755    -0.11900
C1270       C  0.23079644  0.63228045  0.93831051     0.03600
C1271       C  0.19802964  0.61016640  0.92583203    -0.12400
C1272       C  0.19767201  0.57938324  0.91440443     0.18500
C1273       C  0.23093487  0.57079157  0.91555536    -0.09400
C1274       C  0.26332955  0.59247809  0.92819223    -0.02400
H1275       H  0.17320394  0.61795422  0.92463093     0.05000
C1276       C  0.16348077  0.55887560  0.90077031     0.20500
H1277       H  0.28928522  0.58643900  0.92839595     0.10200
C1278       C  0.15901969  0.58456602  0.88779288    -0.15800
C1279       C  0.12293357  0.56827474  0.87680092     0.03200
C1280       C  0.09147717  0.52500240  0.87804210    -0.11100
C1281       C  0.09746627  0.49873354  0.89023107    -0.01100
C1282       C  0.13236313  0.51549007  0.90191028    -0.06300
H1283       H  0.18230053  0.61820164  0.88713899     0.06200
H1284       H  0.07285188  0.46570651  0.89179687     0.09600
Br1285     Br  0.23522134  0.53195153  0.89947508    -0.06000
Br1286     Br  0.23160957  0.67866119  0.95051709    -0.02900
Br1287     Br  0.11544931  0.60816299  0.86285893    -0.00100
Br1288     Br  0.13253907  0.47937127  0.92088034    -0.04500
C1289       C  0.37880700  0.61545680  0.94352771    -0.11900
C1290       C  0.35439660  0.57109917  0.94128794     0.03600
C1291       C  0.36798008  0.55098151  0.92927721    -0.12400
C1292       C  0.40709000  0.57389267  0.92026165     0.18500
C1293       C  0.43228252  0.61817552  0.92313726    -0.09400
C1294       C  0.41748859  0.63858076  0.93436417    -0.02400
H1295       H  0.34801579  0.51709063  0.92709018     0.05000
C1296       C  0.42126522  0.55103217  0.90820864     0.20500
H1297       H  0.43669615  0.67261021  0.93622615     0.10200
C1298       C  0.43309647  0.56485260  0.89026740    -0.15800
C1299       C  0.45159912  0.54751069  0.87921377     0.03200
C1300       C  0.45660349  0.51376146  0.88584718    -0.11100
C1301       C  0.43928276  0.49663595  0.90302593    -0.01100
C1302       C  0.42372649  0.51587822  0.91441834    -0.06300
H1303       H  0.42971626  0.59082155  0.88508903     0.06200
H1304       H  0.43987906  0.46916769  0.90823590     0.09600
Br1305     Br  0.48795602  0.65225070  0.91291754    -0.06000
Br1306     Br  0.30217707  0.53640528  0.95406156    -0.02900
Br1307     Br  0.47106452  0.57454248  0.85613556    -0.00100
Br1308     Br  0.41108899  0.49530974  0.93893812    -0.04500
C1309       C  0.62853448  0.24171592  0.99275794    -0.11900
C1310       C  0.58753493  0.22859107  0.99914866     0.03600
C1311       C  0.57013954  0.19839488  0.01313245    -0.12400
C1312       C  0.59203867  0.17892605  0.02015265     0.18500
C1313       C  0.63132426  0.18930201  0.01230534    -0.09400
C1314       C  0.64990713  0.22176805  0.99939529    -0.02400
H1315       H  0.53901614  0.18947316  0.01829302     0.05000
C1316       C  0.57098546  0.14416535  0.03380158     0.20500
H1317       H  0.68074720  0.23067114  0.99413793     0.10200
C1318       C  0.52977432  0.11100421  0.03020491    -0.15800
C1319       C  0.51050235  0.07498178  0.04120987     0.03200
C1320       C  0.53345185  0.06985863  0.05540432    -0.11100
C1321       C  0.57283908  0.10477521  0.06030435    -0.01100
C1322       C  0.59105959  0.14242476  0.04995184    -0.06300
H1323       H  0.51261034  0.11265126  0.01853575     0.06200
H1324       H  0.59004496  0.10231880  0.07177113     0.09600
Br1325     Br  0.65906733  0.15749109  0.01702125    -0.06000
Br1326     Br  0.55380790  0.24996701  0.98878456    -0.02900
Br1327     Br  0.45198905  0.03520137  0.03672552    -0.00100
Br1328     Br  0.64217060  0.19080527  0.05872415    -0.04500
C1329       C  0.39746364  0.74798648  0.98376399    -0.11900
C1330       C  0.43956835  0.78178302  0.98036255     0.03600
C1331       C  0.45948114  0.81559165  0.99271174    -0.12400
C1332       C  0.43914894  0.81542744  0.00879889     0.18500
C1333       C  0.39926012  0.78058254  0.01288121    -0.09400
C1334       C  0.37934299  0.74765158  0.00061022    -0.02400
H1335       H  0.49104276  0.84192249  0.98984858     0.05000
C1336       C  0.45750023  0.85241838  0.02090911     0.20500
H1337       H  0.34906223  0.72153304  0.00471152     0.10200
C1338       C  0.43680036  0.87551226  0.02198001    -0.15800
C1339       C  0.44635627  0.90517148  0.03562181     0.03200
C1340       C  0.47956975  0.91470261  0.04816267    -0.11100
C1341       C  0.50126266  0.89192891  0.04651451    -0.01100
C1342       C  0.48988524  0.86055955  0.03327810    -0.06300
H1343       H  0.41097344  0.86837220  0.01272355     0.06200
H1344       H  0.52693966  0.89750001  0.05534617     0.09600
Br1345     Br  0.37022308  0.77628966  0.03519734    -0.06000
Br1346     Br  0.47470720  0.78231198  0.96102494    -0.02900
Br1347     Br  0.40988349  0.92853414  0.03644795    -0.00100
Br1348     Br  0.51767799  0.82795643  0.03320699    -0.04500
C1349       C  0.93920986  0.43237094  0.05194883    -0.11900
C1350       C  0.93676475  0.40819398  0.03658957     0.03600
C1351       C  0.90085936  0.39095554  0.02554791    -0.12400
C1352       C  0.86534548  0.39379302  0.03039323     0.18500
C1353       C  0.86469100  0.40992265  0.04770175    -0.09400
C1354       C  0.90207991  0.43075755  0.05798537    -0.02400
H1355       H  0.90100245  0.37573992  0.01300044     0.05000
C1356       C  0.83010119  0.38020281  0.01710782     0.20500
H1357       H  0.90228417  0.44650130  0.07041460     0.10200
C1358       C  0.81399094  0.34095266  0.00820613    -0.15800
C1359       C  0.78215973  0.32801280  0.99506371     0.03200
C1360       C  0.76433147  0.35343551  0.99128680    -0.11100
C1361       C  0.78102352  0.39304103  0.99970965    -0.01100
C1362       C  0.81476456  0.40733269  0.01193619    -0.06300
H1363       H  0.82640369  0.32033858  0.01139401     0.06200
H1364       H  0.76812852  0.41325739  0.99650373     0.09600
Br1365     Br  0.81326180  0.40210257  0.05825145    -0.06000
Br1366     Br  0.98009791  0.39518424  0.03064209    -0.02900
Br1367     Br  0.76478102  0.27590929  0.98251073    -0.00100
Br1368     Br  0.84083012  0.46546591  0.01968518    -0.04500
C1369       C  0.09498669  0.53588553  0.04821643    -0.11900
C1370       C  0.09404522  0.56269928  0.03437473     0.03600
C1371       C  0.12474584  0.57855227  0.02066896    -0.12400
C1372       C  0.15747225  0.56929536  0.02043418     0.18500
C1373       C  0.16070269  0.54572527  0.03480814    -0.09400
C1374       C  0.12978124  0.52919894  0.04837955    -0.02400
H1375       H  0.12307440  0.59830539  0.01006261     0.05000
C1376       C  0.19057374  0.58846031  0.00623279     0.20500
H1377       H  0.13390451  0.51102923  0.05892331     0.10200
C1378       C  0.21584633  0.63271037  0.00555482    -0.15800
C1379       C  0.24963437  0.65262759  0.99344220     0.03200
C1380       C  0.25968008  0.62807734  0.98194458    -0.11100
C1381       C  0.23288055  0.58369351  0.98193385    -0.01100
C1382       C  0.19801446  0.56386143  0.99371782    -0.06300
H1383       H  0.20932047  0.65196833  0.01462495     0.06200
H1384       H  0.23940599  0.56438713  0.97290824     0.09600
Br1385     Br  0.20801362  0.53690611  0.03701560    -0.06000
Br1386     Br  0.05135387  0.57858789  0.03290374    -0.02900
Br1387     Br  0.27716298  0.71324119  0.99241359    -0.00100
Br1388     Br  0.16085054  0.50351652  0.99192812    -0.04500
C1389       C  0.54801163  0.45106689  0.05056686    -0.11900
C1390       C  0.52763867  0.41819827  0.03771148     0.03600
C1391       C  0.55082588  0.40377367  0.02823289    -0.12400
C1392       C  0.59404416  0.42034007  0.03174208     0.18500
C1393       C  0.61370584  0.45058265  0.04563304    -0.09400
C1394       C  0.59072360  0.46602378  0.05485352    -0.02400
H1395       H  0.53505298  0.37950659  0.01797974     0.05000
C1396       C  0.61732236  0.40517526  0.02059428     0.20500
H1397       H  0.60657704  0.49065845  0.06493955     0.10200
C1398       C  0.64698391  0.43225008  0.00761815    -0.15800
C1399       C  0.66522190  0.41684275  0.99529647     0.03200
C1400       C  0.65288571  0.37336100  0.99561307    -0.11100
C1401       C  0.62541247  0.34743469  0.00943137    -0.01100
C1402       C  0.60734285  0.36267051  0.02165379    -0.06300
H1403       H  0.65545875  0.46528886  0.00690237     0.06200
H1404       H  0.61724674  0.31467991  0.01065985     0.09600
Br1405     Br  0.67132428  0.47068843  0.05261429    -0.06000
Br1406     Br  0.46779481  0.39074280  0.03298220    -0.02900
Br1407     Br  0.70839559  0.45694009  0.97927716    -0.00100
Br1408     Br  0.56893001  0.32394452  0.03952375    -0.04500
C1409       C  0.46032372  0.52342143  0.04441003    -0.11900
C1410       C  0.44176294  0.54625028  0.05169831     0.03600
C1411       C  0.42213470  0.56199974  0.04024210    -0.12400
C1412       C  0.41939754  0.55474459  0.02153773     0.18500
C1413       C  0.43490817  0.52980041  0.01436243    -0.09400
C1414       C  0.45455854  0.51412701  0.02565539    -0.02400
H1415       H  0.40958003  0.58068251  0.04592140     0.05000
C1416       C  0.40365469  0.57616303  0.00940809     0.20500
H1417       H  0.46432308  0.49394802  0.01929058     0.10200
C1418       C  0.43337435  0.61198169  0.99963120    -0.15800
C1419       C  0.42035595  0.63286178  0.98761904     0.03200
C1420       C  0.37681107  0.61760796  0.98500600    -0.11100
C1421       C  0.34705743  0.58251896  0.99520924    -0.01100
C1422       C  0.36012514  0.56148072  0.00721053    -0.06300
H1423       H  0.46693687  0.62390031  0.00146486     0.06200
H1424       H  0.31353902  0.57119930  0.99368206     0.09600
Br1425     Br  0.42968767  0.51608426  0.98906062    -0.06000
Br1426     Br  0.44146903  0.55706658  0.07716454    -0.02900
Br1427     Br  0.46354420  0.68357629  0.97618710    -0.00100
Br1428     Br  0.31757947  0.51236004  0.01989997    -0.04500
loop_ 
_geom_bond_atom_site_label_1 
_geom_bond_atom_site_label_2 
_geom_bond_distance 
_geom_bond_site_symmetry_2 
_ccdc_geom_bond_type 
C1            C2   1.535       .  S
C1            C7   1.545       .  S
C1            C5   1.540       .  S
C1         C1409   1.544       .  S
C2            H9   1.086       .  S
C2            C3   1.365       .  D
C3            C4   1.540       .  S
C3           C60   1.476       .  S
C4            C8   1.537       .  S
C4            C6   1.545       .  S
C4           H10   1.111       .  S
C5           H11   1.086       .  S
C5            C6   1.369       .  D
C6          C132   1.481       .  S
C7           H12   1.083       .  S
C7            C8   1.363       .  D
C8         C1389   1.485       .  S
C13          C14   1.534       .  S
C13          C19   1.530       .  S
C13          C17   1.548       .  S
C13        C1369   1.538       .  S
C14          H21   1.086       .  S
C14          C15   1.367       .  D
C15          C16   1.544   1_455  S
C15         C115   1.476       .  S
C16          C20   1.539       .  S
C16          C18   1.538   1_655  S
C16          H22   1.110       .  S
C17          H23   1.082       .  S
C17          C18   1.367       .  D
C18         C192   1.476       .  S
C19          H24   1.086       .  S
C19          C20   1.362   1_455  D
C20        C1349   1.487       .  S
C25          C26   1.541       .  S
C25          C31   1.533       .  S
C25          C29   1.540       .  S
C25        C1340   1.535       .  S
C26          H33   1.080       .  S
C26          C27   1.365       .  D
C27          C28   1.543   1_565  S
C27         C216   1.476   1_565  S
C28          C32   1.540       .  S
C28          C30   1.542   1_545  S
C28          H34   1.111       .  S
C29          H35   1.085       .  S
C29          C30   1.367       .  D
C30          C91   1.475       .  S
C31          H36   1.088       .  S
C31          C32   1.362   1_565  D
C32        C1320   1.487       .  S
C37          C43   1.542       .  S
C37          C42   1.536       .  S
C37          C41   1.532       .  S
C37          H38   1.111       .  S
C39          C45   1.528       .  S
C39          C44   1.547       .  S
C39          C46   1.552       .  S
C39          H40   1.107       .  S
C41          C44   1.376       .  D
C41        C1269   1.491       .  S
C42          C45   1.366       .  D
C42        C1289   1.476       .  S
C43          C46   1.389       .  D
C43        C1260   1.497       .  S
C44        C1380   1.489       .  S
C45        C1420   1.485       .  S
C46        C1329   1.506       .  S
N47          N48   1.324       .  A
N47          C51   1.346       .  A
N47         Cu55   2.076       .  S
N48          C49   1.345       .  A
N48         Cu54   2.084       .  S
C49          C50   1.384       .  A
C49          H52   1.082       .  S
C50          C51   1.382       .  A
C50          C74   1.472       .  S
C51          H53   1.082       .  S
Cu54         N57   2.083       .  S
Cu55         N65   2.075       .  S
Cu56         N58   2.077       .  S
Cu56         N64   2.077       .  S
N57          N58   1.322       .  A
N57          C61   1.350       .  A
N58          C59   1.344       .  A
C59          C60   1.382       .  A
C59          H62   1.083       .  S
C60          C61   1.384       .  A
C61          H63   1.082       .  S
N64          N65   1.322       .  A
N64          C68   1.345       .  A
N65          C66   1.347       .  A
C66          C67   1.384       .  A
C66          H69   1.081       .  S
C67         C157   1.478       .  S
C67          C68   1.385       .  A
C68          H70   1.081       .  S
N71          N72   1.322       .  A
N71          C75   1.344       .  A
N71         Cu79   2.070       .  S
N72          C73   1.346       .  A
N72         Cu78   2.076   1_545  S
C73          C74   1.385       .  A
C73          H76   1.082       .  S
C74          C75   1.382       .  A
C75          H77   1.082       .  S
Cu78         N81   2.075       .  S
Cu79         N89   2.069       .  S
Cu80         N82   2.076       .  S
Cu80         N88   2.076       .  S
N81          N82   1.324       .  A
N81          C85   1.346       .  A
N82          C83   1.343       .  A
C83          C84   1.380       .  A
C83          H86   1.083       .  S
C84         C172   1.468       .  S
C84          C85   1.380       .  A
C85          H87   1.082       .  S
N88          N89   1.321   1_565  A
N88          C92   1.346       .  A
N89          C90   1.344       .  A
C90          C91   1.380   1_545  A
C90          H93   1.082       .  S
C91          C92   1.386       .  A
C92          H94   1.081       .  S
N95          N96   1.324       .  A
N95          C99   1.346       .  A
N95        Cu103   2.091       .  S
N96          C97   1.348       .  A
N96        Cu102   2.076       .  S
C97          C98   1.383       .  A
C97         H100   1.082       .  S
C98          C99   1.386       .  A
C98         C122   1.477       .  S
C99         H101   1.082       .  S
Cu102       N105   2.074   1_655  S
Cu103       N113   2.090       .  S
Cu104       N106   2.074       .  S
Cu104       N112   2.076       .  S
N105        N106   1.321       .  A
N105        C109   1.343       .  A
N106        C107   1.347       .  A
C107        C108   1.386       .  A
C107        H110   1.081       .  S
C108        C169   1.481       .  S
C108        C109   1.384       .  A
C109        H111   1.081       .  S
N112        N113   1.323   1_455  A
N112        C116   1.343       .  A
N113        C114   1.351       .  A
C114        C115   1.386   1_655  A
C114        H117   1.082       .  S
C115        C116   1.381       .  A
C116        H118   1.083       .  S
N119        N120   1.324       .  A
N119        C123   1.350       .  A
N119       Cu127   2.095       .  S
N120        C121   1.343       .  A
N120       Cu126   2.073       .  S
C121        C122   1.381       .  A
C121        H124   1.082       .  S
C122        C123   1.389       .  A
C123        H125   1.082       .  S
Cu126       N129   2.072       .  S
Cu127       N137   2.095       .  S
Cu128       N130   2.087       .  S
Cu128       N136   2.088       .  S
N129        N130   1.321       .  A
N129        C133   1.347       .  A
N130        C131   1.347       .  A
C131        C132   1.387       .  A
C131        H134   1.083       .  S
C132        C133   1.383       .  A
C133        H135   1.082       .  S
N136        N137   1.325       .  A
N136        C140   1.347       .  A
N137        C138   1.350       .  A
C138        C139   1.385       .  A
C138        H141   1.082       .  S
C139        C148   1.480       .  S
C139        C140   1.383       .  A
C140        H142   1.083       .  S
C143        C144   1.535       .  S
C143        C149   1.543       .  S
C143        C147   1.545       .  S
C143       C1229   1.542       .  S
C144        H151   1.087       .  S
C144        C145   1.366       .  D
C145        C146   1.542       .  S
C145        C233   1.479       .  S
C146        C150   1.531       .  S
C146        C148   1.543       .  S
C146        H152   1.111       .  S
C147        H153   1.084       .  S
C147        C148   1.372       .  D
C149        H154   1.084       .  S
C149        C150   1.356       .  D
C150       C1220   1.473       .  S
C155        C156   1.536       .  S
C155        C161   1.526       .  S
C155        C159   1.539       .  S
C155       C1200   1.534       .  S
C156        H163   1.085       .  S
C156        C157   1.363       .  D
C157        C158   1.539       .  S
C158        C162   1.550       .  S
C158        C160   1.550       .  S
C158        H164   1.102       .  S
C159        H165   1.084       .  S
C159        C160   1.367       .  D
C160        C209   1.479       .  S
C161        H166   1.086       .  S
C161        C162   1.371       .  D
C162       C1180   1.511       .  S
C167        C168   1.542       .  S
C167        C173   1.543       .  S
C167        C171   1.537       .  S
C167       C1149   1.541       .  S
C168        H175   1.086       .  S
C168        C169   1.372       .  D
C169        C170   1.543       .  S
C170        C174   1.530       .  S
C170        C172   1.534       .  S
C170        H176   1.110       .  S
C171        H177   1.087       .  S
C171        C172   1.364       .  D
C173        H178   1.070       .  S
C173        C174   1.357       .  D
C174       C1129   1.476       .  S
C179        C185   1.524       .  S
C179        C184   1.546       .  S
C179        C183   1.546       .  S
C179        H180   1.095       .  S
C181        C187   1.533       .  S
C181        C186   1.534       .  S
C181        C188   1.540       .  S
C181        H182   1.102       .  S
C183        C186   1.391       .  D
C183       C1109   1.521       .  S
C184        C187   1.382       .  D
C184       C1100   1.480       .  S
C185        C188   1.367       .  D
C185       C1080   1.488       .  S
C186       C1240   1.485       .  S
C187       C1189   1.513       .  S
C188       C1160   1.472       .  S
N189        N190   1.322   1_455  A
N189        C193   1.344       .  A
N189       Cu197   2.077       .  S
N190        C191   1.346       .  A
N190       Cu196   2.068       .  S
C191        C192   1.382   1_655  A
C191        H194   1.082       .  S
C192        C193   1.385       .  A
C193        H195   1.080       .  S
Cu196       N199   2.068       .  S
Cu197       N207   2.077       .  S
Cu198       N200   2.076       .  S
Cu198       N206   2.077   1_655  S
N199        N200   1.323       .  A
N199        C203   1.343       .  A
N200        C201   1.346       .  A
C201        C202   1.383       .  A
C201        H204   1.082       .  S
C202        C203   1.381       .  A
C202        C226   1.469       .  S
C203        H205   1.082       .  S
N206        N207   1.322       .  A
N206        C210   1.346       .  A
N207        C208   1.345       .  A
C208        C209   1.384       .  A
C208        H211   1.084       .  S
C209        C210   1.383       .  A
C210        H212   1.077       .  S
N213        N214   1.322   1_565  A
N213        C217   1.343       .  A
N213       Cu221   2.086       .  S
N214        C215   1.349       .  A
N214       Cu220   2.069       .  S
C215        C216   1.382       .  A
C215        H218   1.082       .  S
C216        C217   1.386   1_545  A
C217        H219   1.082       .  S
Cu220       N223   2.071       .  S
Cu221       N231   2.086       .  S
Cu222       N224   2.076       .  S
Cu222       N230   2.075   1_545  S
N223        N224   1.324       .  A
N223        C227   1.343       .  A
N224        C225   1.346       .  A
C225        C226   1.383       .  A
C225        H228   1.082       .  S
C226        C227   1.381       .  A
C227        H229   1.082       .  S
N230        N231   1.322       .  A
N230        C234   1.347       .  A
N231        C232   1.346       .  A
C232        C233   1.385       .  A
C232        H235   1.082       .  S
C233        C234   1.383       .  A
C234        H236   1.082       .  S
C237        C238   1.529       .  S
C237        C243   1.535       .  S
C237        C241   1.547       .  S
C237       C1060   1.532       .  S
C238        H245   1.086       .  S
C238        C239   1.364       .  D
C239        C240   1.542       .  S
C239        C358   1.480       .  S
C240        C244   1.538       .  S
C240        C242   1.542       .  S
C240        H246   1.111       .  S
C241        H247   1.083       .  S
C241        C242   1.372       .  D
C242        C399   1.478       .  S
C243        H248   1.087       .  S
C243        C244   1.358       .  D
C244       C1040   1.477       .  S
C249        C250   1.531       .  S
C249        C255   1.539       .  S
C249        C253   1.533       .  S
C249       C1009   1.537       .  S
C250        H257   1.086       .  S
C250        C251   1.360       .  D
C251        C252   1.534       .  S
C251        C320   1.474       .  S
C252        C256   1.545       .  S
C252        C254   1.552       .  S
C252        H258   1.100       .  S
C253        H259   1.085       .  S
C253        C254   1.370       .  D
C254        C344   1.477       .  S
C255        H260   1.082       .  S
C255        C256   1.369       .  D
C256       C1000   1.510       .  S
C261        C262   1.542       .  S
C261        C267   1.528       .  S
C261        C265   1.543       .  S
C261        C980   1.535       .  S
C262        H269   1.085       .  S
C262        C263   1.368       .  D
C263        C264   1.543       .  S
C263        C423   1.480       .  S
C264        C268   1.533       .  S
C264        C266   1.540       .  S
C264        H270   1.111       .  S
C265        H271   1.083       .  S
C265        C266   1.369       .  D
C266        C303   1.477       .  S
C267        H272   1.088       .  S
C267        C268   1.358       .  D
C268        C960   1.473       .  S
C273        C279   1.539   1_465  S
C273        C278   1.546   1_455  S
C273        C277   1.552   1_565  S
C273        H274   1.085       .  S
C275        C281   1.535       .  S
C275        C280   1.532   1_655  S
C275        C282   1.532   1_565  S
C275        H276   1.112       .  S
C277        C280   1.377   1_545  D
C277        C889   1.485       .  S
C278        C281   1.391       .  D
C278        C929   1.529       .  S
C279        C282   1.375       .  D
C279        C909   1.498       .  S
C280        C969   1.497   1_565  S
C281       C1049   1.484       .  S
C282       C1020   1.488       .  S
N283        N284   1.325   1_545  A
N283        C287   1.349       .  A
N283       Cu291   2.092       .  S
N284        C285   1.343       .  A
N284       Cu290   2.077       .  S
C285        C286   1.381   1_565  A
C285        H288   1.082       .  S
C286        C287   1.386       .  A
C286        C310   1.474       .  S
C287        H289   1.082       .  S
Cu290       N293   2.075       .  S
Cu291       N301   2.091       .  S
Cu292       N294   2.072   1_545  S
Cu292       N300   2.072       .  S
N293        N294   1.321       .  A
N293        C297   1.350       .  A
N294        C295   1.342       .  A
C295        C296   1.383       .  A
C295        H298   1.083       .  S
C296        C432   1.476       .  S
C296        C297   1.384       .  A
C297        H299   1.082       .  S
N300        N301   1.323       .  A
N300        C304   1.344       .  A
N301        C302   1.350       .  A
C302        C303   1.386       .  A
C302        H305   1.082       .  S
C303        C304   1.381       .  A
C304        H306   1.082       .  S
N307        N308   1.324   1_565  A
N307        C311   1.343       .  A
N307       Cu315   2.076       .  S
N308        C309   1.348       .  A
N308       Cu314   2.085       .  S
C309        C310   1.385       .  A
C309        H312   1.082       .  S
C310        C311   1.382   1_545  A
C311        H313   1.082       .  S
Cu314       N317   2.083       .  S
Cu315       N325   2.074       .  S
Cu316       N318   2.065   1_565  S
Cu316       N324   2.065       .  S
N317        N318   1.322       .  A
N317        C321   1.348       .  A
N318        C319   1.343       .  A
C319        C320   1.381       .  A
C319        H322   1.082       .  S
C320        C321   1.384       .  A
C321        H323   1.082       .  S
N324        N325   1.321       .  A
N324        C328   1.342       .  A
N325        C326   1.348       .  A
C326        C327   1.383       .  A
C326        H329   1.082       .  S
C327        C453   1.471       .  S
C327        C328   1.381       .  A
C328        H330   1.083       .  S
N331        N332   1.325   1_455  A
N331        C335   1.348       .  A
N331       Cu339   2.092       .  S
N332        C333   1.345       .  A
N332       Cu338   2.083       .  S
C333        C334   1.382   1_655  A
C333        H336   1.082       .  S
C334        C335   1.385       .  A
C334        C375   1.475       .  S
C335        H337   1.082       .  S
Cu338       N341   2.082       .  S
Cu339       N349   2.091       .  S
Cu340       N342   2.064   1_455  S
Cu340       N348   2.065       .  S
N341        N342   1.320       .  A
N341        C345   1.348       .  A
N342        C343   1.343       .  A
C343        C344   1.382       .  A
C343        H346   1.083       .  S
C344        C345   1.386       .  A
C345        H347   1.078       .  S
N348        N349   1.322       .  A
N348        C352   1.340       .  A
N349        C350   1.352       .  A
C350        C351   1.387       .  A
C350        H353   1.083       .  S
C351        C444   1.479       .  S
C351        C352   1.381       .  A
C352        H354   1.081       .  S
N355        N356   1.321       .  A
N355        C359   1.349       .  A
N355       Cu363   2.079       .  S
N356        C357   1.342       .  A
N356       Cu362   2.073   1_655  S
C357        C358   1.383       .  A
C357        H360   1.082       .  S
C358        C359   1.385       .  A
C359        H361   1.078       .  S
Cu362       N365   2.073       .  S
Cu363       N373   2.082       .  S
Cu364       N366   2.088       .  S
Cu364       N372   2.090       .  S
N365        N366   1.321       .  A
N365        C369   1.346       .  A
N366        C367   1.347       .  A
C367        C368   1.386       .  A
C367        H370   1.078       .  S
C368        C429   1.485       .  S
C368        C369   1.386       .  A
C369        H371   1.081       .  S
N372        N373   1.325   1_455  A
N372        C376   1.348       .  A
N373        C374   1.346       .  A
C374        C375   1.383   1_655  A
C374        H377   1.082       .  S
C375        C376   1.384       .  A
C376        H378   1.082       .  S
N379        N380   1.322       .  A
N379        C383   1.345       .  A
N379       Cu387   2.075       .  S
N380        C381   1.347       .  A
N380       Cu386   2.075       .  S
C381        C382   1.382       .  A
C381        H384   1.082       .  S
C382        C456   1.475       .  S
C382        C383   1.383       .  A
C383        H385   1.082       .  S
Cu386       N389   2.075       .  S
Cu387       N397   2.076       .  S
Cu388       N390   2.086       .  S
Cu388       N396   2.086       .  S
N389        N390   1.324       .  A
N389        C393   1.345       .  A
N390        C391   1.347       .  A
C391        C392   1.385       .  A
C391        H394   1.082       .  S
C392        C393   1.382       .  A
C392        C416   1.474       .  S
C393        H395   1.082       .  S
N396        N397   1.323       .  A
N396        C400   1.348       .  A
N397        C398   1.345       .  A
C398        C399   1.382       .  A
C398        H401   1.082       .  S
C399        C400   1.385       .  A
C400        H402   1.081       .  S
N403        N404   1.322       .  A
N403        C407   1.342       .  A
N403       Cu411   2.071       .  S
N404        C405   1.351       .  A
N404       Cu410   2.086       .  S
C405        C406   1.386       .  A
C405        H408   1.081       .  S
C406        C441   1.477       .  S
C406        C407   1.382       .  A
C407        H409   1.082       .  S
Cu410       N413   2.088       .  S
Cu411       N421   2.071       .  S
Cu412       N414   2.084       .  S
Cu412       N420   2.082       .  S
N413        N414   1.325       .  A
N413        C417   1.347       .  A
N414        C415   1.346       .  A
C415        C416   1.382       .  A
C415        H418   1.082       .  S
C416        C417   1.384       .  A
C417        H419   1.082       .  S
N420        N421   1.321       .  A
N420        C424   1.350       .  A
N421        C422   1.342       .  A
C422        C423   1.383       .  A
C422        H425   1.081       .  S
C423        C424   1.387       .  A
C424        H426   1.082       .  S
C427        C428   1.547       .  S
C427        C433   1.534       .  S
C427        C431   1.529       .  S
C427        C869   1.534       .  S
C428        H435   1.083       .  S
C428        C429   1.374       .  D
C429        C430   1.548       .  S
C430        C434   1.538       .  S
C430        C432   1.543       .  S
C430        H436   1.111       .  S
C431        H437   1.086       .  S
C431        C432   1.363       .  D
C433        H438   1.086       .  S
C433        C434   1.359       .  D
C434       C1069   1.477       .  S
C439        C440   1.535       .  S
C439        C445   1.533       .  S
C439        C443   1.545       .  S
C439        C849   1.536       .  S
C440        H447   1.085       .  S
C440        C441   1.367       .  D
C441        C442   1.543       .  S
C442        C446   1.537       .  S
C442        C444   1.541       .  S
C442        H448   1.111       .  S
C443        H449   1.078       .  S
C443        C444   1.368       .  D
C445        H450   1.086       .  S
C445        C446   1.361       .  D
C446       C1089   1.478       .  S
C451        C452   1.544       .  S
C451        C457   1.532       .  S
C451        C455   1.538       .  S
C451        C840   1.532       .  S
C452        H459   1.081       .  S
C452        C453   1.367       .  D
C453        C454   1.538       .  S
C454        C458   1.533       .  S
C454        C456   1.540       .  S
C454        H460   1.111       .  S
C455        H461   1.087       .  S
C455        C456   1.366       .  D
C457        H462   1.088       .  S
C457        C458   1.357       .  D
C458       C1120   1.469       .  S
C463        C469   1.524       .  S
C463        C468   1.539   1_455  S
C463        C467   1.535   1_565  S
C463        H464   1.111       .  S
C465        C471   1.540   1_455  S
C465        C470   1.536   1_565  S
C465        C472   1.549       .  S
C465        H466   1.106       .  S
C467        C470   1.375       .  D
C467       C1169   1.479       .  S
C468        C471   1.382       .  D
C468       C1209   1.494       .  S
C469        C472   1.373       .  D
C469       C1140   1.482       .  S
C470        C860   1.496       .  S
C471        C829   1.494       .  S
C472        C880   1.485       .  S
C473        C474   1.544       .  S
C473        C479   1.529       .  S
C473        C477   1.540       .  S
C473        C809   1.534       .  S
C474        H481   1.085       .  S
C474        C475   1.368       .  D
C475        C476   1.546       .  S
C475        C594   1.482       .  S
C476        C480   1.535       .  S
C476        C478   1.546       .  S
C476        H482   1.111       .  S
C477        H483   1.083       .  S
C477        C478   1.369       .  D
C478        C563   1.485       .  S
C479        H484   1.087       .  S
C479        C480   1.356       .  D
C480        C940   1.471       .  S
C485        C486   1.535       .  S
C485        C491   1.542       .  S
C485        C489   1.541       .  S
C485        C800   1.537       .  S
C486        H493   1.086       .  S
C486        C487   1.368       .  D
C487        C488   1.543       .  S
C487        C635   1.477       .  S
C488        C492   1.533       .  S
C488        C490   1.542       .  S
C488        H494   1.111       .  S
C489        H495   1.086       .  S
C489        C490   1.366       .  D
C490        C570   1.477       .  S
C491        H496   1.083       .  S
C491        C492   1.357       .  D
C492        C900   1.474       .  S
C497        C498   1.541       .  S
C497        C503   1.530       .  S
C497        C501   1.540       .  S
C497        C769   1.536       .  S
C498        H505   1.086       .  S
C498        C499   1.368       .  D
C499        C500   1.544       .  S
C499        C532   1.480       .  S
C500        C504   1.539       .  S
C500        C502   1.543       .  S
C500        H506   1.111       .  S
C501        H507   1.081       .  S
C501        C502   1.368       .  D
C502        C652   1.482       .  S
C503        H508   1.087       .  S
C503        C504   1.361       .  D
C504        C920   1.481       .  S
C509        C515   1.540       .  S
C509        C514   1.535       .  S
C509        C513   1.539       .  S
C509        H510   1.111       .  S
C511        C517   1.529       .  S
C511        C516   1.531       .  S
C511        C518   1.528       .  S
C511        H512   1.111       .  S
C513        C516   1.379       .  D
C513       C1029   1.484       .  S
C514        C517   1.374       .  D
C514        C949   1.487       .  S
C515        C518   1.375       .  D
C515        C989   1.476       .  S
C516        C820   1.485       .  S
C517        C789   1.477       .  S
C518        C780   1.489       .  S
N519        N520   1.326       .  A
N519        C523   1.347       .  A
N519       Cu527   2.098       .  S
N520        C521   1.349       .  A
N520       Cu526   2.091       .  S
C521        C522   1.385       .  A
C521        H524   1.081       .  S
C522        C523   1.386       .  A
C522        C556   1.480       .  S
C523        H525   1.082       .  S
Cu526       N529   2.089   1_565  S
Cu527       N537   2.097       .  S
Cu528       N530   2.077       .  S
Cu528       N536   2.077       .  S
N529        N530   1.323       .  A
N529        C533   1.352       .  A
N530        C531   1.342       .  A
C531        C532   1.383       .  A
C531        H534   1.082       .  S
C532        C533   1.386       .  A
C533        H535   1.082       .  S
N536        N537   1.322   1_545  A
N536        C540   1.346       .  A
N537        C538   1.351       .  A
C538        C539   1.388       .  A
C538        H541   1.082       .  S
C539        C677   1.482   1_565  S
C539        C540   1.383   1_565  A
C540        H542   1.083       .  S
N543        N544   1.322       .  A
N543        C547   1.345       .  A
N543       Cu551   2.080       .  S
N544        C545   1.347       .  A
N544       Cu550   2.077       .  S
C545        C546   1.383       .  A
C545        H548   1.079       .  S
C546        C668   1.477       .  S
C546        C547   1.385       .  A
C547        H549   1.083       .  S
Cu550       N553   2.078       .  S
Cu551       N561   2.081       .  S
Cu552       N554   2.096       .  S
Cu552       N560   2.095       .  S
N553        N554   1.323       .  A
N553        C557   1.345       .  A
N554        C555   1.350       .  A
C555        C556   1.388       .  A
C555        H558   1.082       .  S
C556        C557   1.383       .  A
C557        H559   1.082       .  S
N560        N561   1.323       .  A
N560        C564   1.349       .  A
N561        C562   1.346       .  A
C562        C563   1.386       .  A
C562        H565   1.080       .  S
C563        C564   1.387       .  A
C564        H566   1.082       .  S
N567        N568   1.322       .  A
N567        C571   1.347       .  A
N567       Cu575   2.090       .  S
N568        C569   1.348       .  A
N568       Cu574   2.074   1_545  S
C569        C570   1.382       .  A
C569        H572   1.082       .  S
C570        C571   1.385       .  A
C571        H573   1.083       .  S
Cu574       N577   2.075       .  S
Cu575       N585   2.091       .  S
Cu576       N578   2.093       .  S
Cu576       N584   2.092       .  S
N577        N578   1.324       .  A
N577        C581   1.345       .  A
N578        C579   1.349       .  A
C579        C580   1.387       .  A
C579        H582   1.081       .  S
C580        C581   1.381       .  A
C580        C604   1.476       .  S
C581        H583   1.082       .  S
N584        N585   1.324   1_565  A
N584        C588   1.351       .  A
N585        C586   1.346       .  A
C586        C587   1.385   1_545  A
C586        H589   1.083       .  S
C587        C680   1.484   1_565  S
C587        C588   1.386       .  A
C588        H590   1.082       .  S
N591        N592   1.323       .  A
N591        C595   1.345       .  A
N591       Cu599   2.082       .  S
N592        C593   1.352       .  A
N592       Cu598   2.093   1_655  S
C593        C594   1.387       .  A
C593        H596   1.082       .  S
C594        C595   1.383       .  A
C595        H597   1.084       .  S
Cu598       N601   2.095       .  S
Cu599       N609   2.081       .  S
Cu600       N602   2.083       .  S
Cu600       N608   2.081       .  S
N601        N602   1.325       .  A
N601        C605   1.347       .  A
N602        C603   1.347       .  A
C603        C604   1.383       .  A
C603        H606   1.082       .  S
C604        C605   1.385       .  A
C605        H607   1.082       .  S
N608        N609   1.321   1_455  A
N608        C612   1.348       .  A
N609        C610   1.345       .  A
C610        C611   1.386   1_655  A
C610        H613   1.082       .  S
C611        C689   1.486       .  S
C611        C612   1.387       .  A
C612        H614   1.077       .  S
N615        N616   1.322       .  A
N615        C619   1.345       .  A
N615       Cu623   2.078       .  S
N616        C617   1.348       .  A
N616       Cu622   2.082       .  S
C617        C618   1.384       .  A
C617        H620   1.082       .  S
C618        C665   1.478       .  S
C618        C619   1.384       .  A
C619        H621   1.082       .  S
Cu622       N625   2.083       .  S
Cu623       N633   2.078       .  S
Cu624       N626   2.080       .  S
Cu624       N632   2.079       .  S
N625        N626   1.324       .  A
N625        C629   1.346       .  A
N626        C627   1.347       .  A
C627        C628   1.384       .  A
C627        H630   1.082       .  S
C628        C629   1.384       .  A
C628        C642   1.475       .  S
C629        H631   1.082       .  S
N632        N633   1.322       .  A
N632        C636   1.347       .  A
N633        C634   1.345       .  A
C634        C635   1.384       .  A
C634        H637   1.082       .  S
C635        C636   1.383       .  A
C636        H638   1.080       .  S
N639        N640   1.324       .  A
N639        C643   1.345       .  A
N639       Cu647   2.077       .  S
N640        C641   1.347       .  A
N640       Cu646   2.090       .  S
C641        C642   1.385       .  A
C641        H644   1.082       .  S
C642        C643   1.382       .  A
C643        H645   1.082       .  S
Cu646       N649   2.089   1_455  S
Cu647       N657   2.075       .  S
Cu648       N650   2.080       .  S
Cu648       N656   2.081       .  S
N649        N650   1.323       .  A
N649        C653   1.351       .  A
N650        C651   1.344       .  A
C651        C652   1.384       .  A
C651        H654   1.081       .  S
C652        C653   1.387       .  A
C653        H655   1.082       .  S
N656        N657   1.322   1_655  A
N656        C660   1.345       .  A
N657        C658   1.348       .  A
C658        C659   1.383       .  A
C658        H661   1.082       .  S
C659        C692   1.478       .  S
C659        C660   1.385   1_455  A
C660        H662   1.083       .  S
C663        C664   1.539       .  S
C663        C669   1.524       .  S
C663        C667   1.539       .  S
C663        C749   1.535       .  S
C664        H671   1.085       .  S
C664        C665   1.366       .  D
C665        C666   1.540       .  S
C666        C670   1.548       .  S
C666        C668   1.549       .  S
C666        H672   1.104       .  S
C667        H673   1.085       .  S
C667        C668   1.366       .  D
C669        H674   1.087       .  S
C669        C670   1.369       .  D
C670       C1300   1.505       .  S
C675        C676   1.547       .  S
C675        C681   1.540   1_545  S
C675        C679   1.534       .  S
C675        C740   1.543       .  S
C676        H683   1.084       .  S
C676        C677   1.371       .  D
C677        C678   1.543   1_545  S
C678        C682   1.533       .  S
C678        C680   1.546   1_565  S
C678        H684   1.111       .  S
C679        H685   1.086       .  S
C679        C680   1.368       .  D
C681        H686   1.085       .  S
C681        C682   1.357       .  D
C682       C1249   1.475       .  S
C687        C688   1.540       .  S
C687        C693   1.539   1_655  S
C687        C691   1.535       .  S
C687        C720   1.542       .  S
C688        H695   1.085       .  S
C688        C689   1.372   1_655  D
C689        C690   1.549       .  S
C690        C694   1.541       .  S
C690        C692   1.542       .  S
C690        H696   1.111       .  S
C691        H697   1.086       .  S
C691        C692   1.366   1_655  D
C693        H698   1.084       .  S
C693        C694   1.358       .  D
C694       C1280   1.483       .  S
C699        C705   1.551       .  S
C699        C704   1.545       .  S
C699        C703   1.542       .  S
C699        H700   1.109       .  S
C701        C707   1.527       .  S
C701        C706   1.533       .  S
C701        C708   1.538       .  S
C701        H702   1.112   1_556  S
C703        C706   1.373       .  D
C703        C729   1.495       .  S
C704        C707   1.368       .  D
C704        C709   1.485       .  S
C705        C708   1.387       .  D
C705        C760   1.501       .  S
C706       C1309   1.479       .  S
C707       C1360   1.479       .  S
C708       C1400   1.495       .  S
C709        C710   1.409       .  A
C709        C714   1.405       .  A
C710        C711   1.399       .  A
C710       Br726   1.913       .  S
C711        C712   1.401       .  A
C711        H715   1.083       .  S
C712        C713   1.408       .  A
C712        C716   1.479       .  S
C713        C714   1.400       .  A
C713       Br725   1.918       .  S
C714        H717   1.083       .  S
C716        C718   1.401       .  A
C716        C722   1.400       .  A
C718        C719   1.405       .  A
C718        H723   1.084       .  S
C719        C720   1.421       .  A
C719       Br727   1.922       .  S
C720        C721   1.417       .  A
C721        C722   1.394       .  A
C721        H724   1.078       .  S
C722       Br728   1.921       .  S
C729        C730   1.415       .  A
C729        C734   1.406       .  A
C730        C731   1.398       .  A
C730       Br746   1.910       .  S
C731        C732   1.397       .  A
C731        H735   1.084       .  S
C732        C733   1.408       .  A
C732        C736   1.480       .  S
C733        C734   1.401       .  A
C733       Br745   1.917       .  S
C734        H737   1.083       .  S
C736        C738   1.402       .  A
C736        C742   1.401       .  A
C738        C739   1.405       .  A
C738        H743   1.084       .  S
C739        C740   1.420       .  A
C739       Br747   1.920       .  S
C740        C741   1.417       .  A
C741        C742   1.397       .  A
C741        H744   1.081       .  S
C742       Br748   1.920       .  S
C749        C750   1.423       .  A
C749        C754   1.411       .  A
C750        C751   1.400       .  A
C750       Br766   1.924       .  S
C751        C752   1.401       .  A
C751        H755   1.084       .  S
C752        C753   1.410       .  A
C752        C756   1.490       .  S
C753        C754   1.398       .  A
C753       Br765   1.922       .  S
C754        H757   1.081       .  S
C756        C758   1.399       .  A
C756        C762   1.413       .  A
C758        C759   1.394       .  A
C758        H763   1.083       .  S
C759        C760   1.416       .  A
C759       Br767   1.912       .  S
C760        C761   1.409       .  A
C761        C762   1.403       .  A
C761        H764   1.082       .  S
C762       Br768   1.919       .  S
C769        C770   1.426       .  A
C769        C774   1.414       .  A
C770        C771   1.400       .  A
C770       Br786   1.923       .  S
C771        C772   1.400       .  A
C771        H775   1.083       .  S
C772        C773   1.406       .  A
C772        C776   1.484       .  S
C773        C774   1.397       .  A
C773       Br785   1.922       .  S
C774        H777   1.082       .  S
C776        C778   1.404       .  A
C776        C782   1.407       .  A
C778        C779   1.399       .  A
C778        H783   1.083       .  S
C779        C780   1.412       .  A
C779       Br787   1.915       .  S
C780        C781   1.407       .  A
C781        C782   1.396       .  A
C781        H784   1.083       .  S
C782       Br788   1.920       .  S
C789        C790   1.409       .  A
C789        C794   1.403       .  A
C790        C791   1.398       .  A
C790       Br806   1.916       .  S
C791        C792   1.403       .  A
C791        H795   1.083       .  S
C792        C793   1.404       .  A
C792        C796   1.471       .  S
C793        C794   1.393       .  A
C793       Br805   1.918       .  S
C794        H797   1.084       .  S
C796        C798   1.400       .  A
C796        C802   1.399       .  A
C798        C799   1.400       .  A
C798        H803   1.083       .  S
C799        C800   1.420       .  A
C799       Br807   1.922       .  S
C800        C801   1.416       .  A
C801        C802   1.393       .  A
C801        H804   1.077       .  S
C802       Br808   1.921       .  S
C809        C810   1.424       .  A
C809        C814   1.413       .  A
C810        C811   1.399       .  A
C810       Br826   1.924       .  S
C811        C812   1.400       .  A
C811        H815   1.084       .  S
C812        C813   1.408       .  A
C812        C816   1.486       .  S
C813        C814   1.399       .  A
C813       Br825   1.923       .  S
C814        H817   1.082       .  S
C816        C818   1.409       .  A
C816        C822   1.408       .  A
C818        C819   1.403       .  A
C818        H823   1.083       .  S
C819        C820   1.409       .  A
C819       Br827   1.918       .  S
C820        C821   1.405       .  A
C821        C822   1.392       .  A
C821        H824   1.083       .  S
C822       Br828   1.922       .  S
C829        C830   1.415       .  A
C829        C834   1.404       .  A
C830        C831   1.405       .  A
C830       Br846   1.918   1_565  S
C831        C832   1.404       .  A
C831        H835   1.082       .  S
C832        C833   1.402       .  A
C832        C836   1.475       .  S
C833        C834   1.388       .  A
C833       Br845   1.922       .  S
C834        H837   1.072       .  S
C836        C838   1.397       .  A
C836        C842   1.403       .  A
C838        C839   1.393       .  A
C838        H843   1.084       .  S
C839        C840   1.422       .  A
C839       Br847   1.926       .  S
C840        C841   1.415       .  A
C841        C842   1.400       .  A
C841        H844   1.075       .  S
C842       Br848   1.919   1_565  S
C849        C850   1.424       .  A
C849        C854   1.415       .  A
C850        C851   1.395       .  A
C850       Br866   1.921       .  S
C851        C852   1.395       .  A
C851        H855   1.083       .  S
C852        C853   1.403       .  A
C852        C856   1.473       .  S
C853        C854   1.399       .  A
C853       Br865   1.921       .  S
C854        H857   1.071       .  S
C856        C858   1.394       .  A
C856        C862   1.405       .  A
C858        C859   1.394       .  A
C858        H863   1.084       .  S
C859        C860   1.417       .  A
C859       Br867   1.907       .  S
C860        C861   1.409       .  A
C861        C862   1.398       .  A
C861        H864   1.082       .  S
C862       Br868   1.918       .  S
C869        C870   1.423       .  A
C869        C874   1.407       .  A
C870        C871   1.397       .  A
C870       Br886   1.926       .  S
C871        C872   1.400       .  A
C871        H875   1.081       .  S
C872        C873   1.416       .  A
C872        C876   1.493       .  S
C873        C874   1.401       .  A
C873       Br885   1.924       .  S
C874        H877   1.079       .  S
C876        C878   1.403       .  A
C876        C882   1.417       .  A
C878        C879   1.394       .  A
C878        H883   1.083       .  S
C879        C880   1.409       .  A
C879       Br887   1.912   1_455  S
C880        C881   1.402       .  A
C881        C882   1.403       .  A
C881        H884   1.082       .  S
C882       Br888   1.922       .  S
C889        C890   1.410       .  A
C889        C894   1.403   1_545  A
C890        C891   1.399       .  A
C890       Br906   1.915       .  S
C891        C892   1.406       .  A
C891        H895   1.084       .  S
C892        C893   1.408       .  A
C892        C896   1.483       .  S
C893        C894   1.397   1_545  A
C893       Br905   1.921   1_545  S
C894        H897   1.082       .  S
C896        C898   1.406       .  A
C896        C902   1.411       .  A
C898        C899   1.398       .  A
C898        H903   1.083       .  S
C899        C900   1.406       .  A
C899       Br907   1.916       .  S
C900        C901   1.402       .  A
C901        C902   1.398       .  A
C901        H904   1.084       .  S
C902       Br908   1.920       .  S
C909        C910   1.419       .  A
C909        C914   1.407       .  A
C910        C911   1.397       .  A
C910       Br926   1.917   1_655  S
C911        C912   1.397       .  A
C911        H915   1.084       .  S
C912        C913   1.407       .  A
C912        C916   1.479       .  S
C913        C914   1.401       .  A
C913       Br925   1.918       .  S
C914        H917   1.083       .  S
C916        C918   1.401       .  A
C916        C922   1.409       .  A
C918        C919   1.399       .  A
C918        H923   1.083       .  S
C919        C920   1.412       .  A
C919       Br927   1.921       .  S
C920        C921   1.403       .  A
C921        C922   1.401       .  A
C921        H924   1.083       .  S
C922       Br928   1.919       .  S
C929        C930   1.438       .  A
C929        C934   1.416       .  A
C930        C931   1.398       .  A
C930       Br946   1.920   1_655  S
C931        C932   1.389       .  A
C931        H935   1.086       .  S
C932        C933   1.399       .  A
C932        C936   1.475       .  S
C933        C934   1.399       .  A
C933       Br945   1.919       .  S
C934        H937   1.074       .  S
C936        C938   1.402       .  A
C936        C942   1.408       .  A
C938        C939   1.398       .  A
C938        H943   1.084       .  S
C939        C940   1.407       .  A
C939       Br947   1.915       .  S
C940        C941   1.401       .  A
C941        C942   1.397       .  A
C941        H944   1.084       .  S
C942       Br948   1.920       .  S
C949        C950   1.413       .  A
C949        C954   1.406       .  A
C950        C951   1.393       .  A
C950       Br966   1.913       .  S
C951        C952   1.398       .  A
C951        H955   1.085       .  S
C952        C953   1.407       .  A
C952        C956   1.473       .  S
C953        C954   1.398       .  A
C953       Br965   1.918       .  S
C954        H957   1.083       .  S
C956        C958   1.401       .  A
C956        C962   1.409       .  A
C958        C959   1.393       .  A
C958        H963   1.084       .  S
C959        C960   1.409       .  A
C959       Br967   1.921       .  S
C960        C961   1.402       .  A
C961        C962   1.400       .  A
C961        H964   1.084       .  S
C962       Br968   1.919       .  S
C969        C970   1.414       .  A
C969        C974   1.409       .  A
C970        C971   1.401       .  A
C970       Br986   1.914   1_545  S
C971        C972   1.406       .  A
C971        H975   1.083       .  S
C972        C973   1.407       .  A
C972        C976   1.487       .  S
C973        C974   1.395       .  A
C973       Br985   1.922       .  S
C974        H977   1.081       .  S
C976        C978   1.401       .  A
C976        C982   1.407       .  A
C978        C979   1.400       .  A
C978        H983   1.084       .  S
C979        C980   1.424       .  A
C979       Br987   1.923       .  S
C980        C981   1.414       .  A
C981        C982   1.398       .  A
C981        H984   1.082       .  S
C982       Br988   1.923       .  S
C989        C990   1.407       .  A
C989        C994   1.401       .  A
C990        C991   1.396       .  A
C990      Br1006   1.918       .  S
C991        C992   1.406       .  A
C991        H995   1.082       .  S
C992        C993   1.413       .  A
C992        C996   1.485       .  S
C993        C994   1.394       .  A
C993      Br1005   1.922       .  S
C994        H997   1.083       .  S
C996        C998   1.403       .  A
C996       C1002   1.405       .  A
C998        C999   1.402       .  A
C998       H1003   1.083       .  S
C999       C1000   1.421       .  A
C999      Br1007   1.914       .  S
C1000      C1001   1.415       .  A
C1001      C1002   1.390       .  A
C1001      H1004   1.081       .  S
C1002     Br1008   1.925       .  S
C1009      C1010   1.422       .  A
C1009      C1014   1.416       .  A
C1010      C1011   1.406       .  A
C1010     Br1026   1.921       .  S
C1011      C1012   1.402       .  A
C1011      H1015   1.083       .  S
C1012      C1013   1.397       .  A
C1012      C1016   1.473       .  S
C1013      C1014   1.389       .  A
C1013     Br1025   1.922       .  S
C1014      H1017   1.079       .  S
C1016      C1018   1.399       .  A
C1016      C1022   1.405       .  A
C1018      C1019   1.397       .  A
C1018      H1023   1.083       .  S
C1019      C1020   1.414       .  A
C1019     Br1027   1.914   1_655  S
C1020      C1021   1.406       .  A
C1021      C1022   1.398       .  A
C1021      H1024   1.081   1_545  S
C1022     Br1028   1.918   1_545  S
C1029      C1030   1.408       .  A
C1029      C1034   1.407       .  A
C1030      C1031   1.398       .  A
C1030     Br1046   1.917       .  S
C1031      C1032   1.406       .  A
C1031      H1035   1.083       .  S
C1032      C1033   1.407       .  A
C1032      C1036   1.482       .  S
C1033      C1034   1.398       .  A
C1033     Br1045   1.920       .  S
C1034      H1037   1.083       .  S
C1036      C1038   1.403       .  A
C1036      C1042   1.412       .  A
C1038      C1039   1.395       .  A
C1038      H1043   1.083       .  S
C1039      C1040   1.406       .  A
C1039     Br1047   1.913       .  S
C1040      C1041   1.404       .  A
C1041      C1042   1.401       .  A
C1041      H1044   1.083       .  S
C1042     Br1048   1.920       .  S
C1049      C1050   1.404       .  A
C1049      C1054   1.402       .  A
C1050      C1051   1.400       .  A
C1050     Br1066   1.912   1_655  S
C1051      C1052   1.409       .  A
C1051      H1055   1.082       .  S
C1052      C1053   1.414       .  A
C1052      C1056   1.493       .  S
C1053      C1054   1.399       .  A
C1053     Br1065   1.922       .  S
C1054      H1057   1.082       .  S
C1056      C1058   1.402       .  A
C1056      C1062   1.413       .  A
C1058      C1059   1.397       .  A
C1058      H1063   1.083       .  S
C1059      C1060   1.421       .  A
C1059     Br1067   1.926       .  S
C1060      C1061   1.409       .  A
C1061      C1062   1.402       .  A
C1061      H1064   1.079       .  S
C1062     Br1068   1.923       .  S
C1069      C1070   1.407       .  A
C1069      C1074   1.403       .  A
C1070      C1071   1.400       .  A
C1070     Br1086   1.911       .  S
C1071      C1072   1.404       .  A
C1071      H1075   1.083       .  S
C1072      C1073   1.409       .  A
C1072      C1076   1.480       .  S
C1073      C1074   1.397       .  A
C1073     Br1085   1.920       .  S
C1074      H1077   1.084       .  S
C1076      C1078   1.403       .  A
C1076      C1082   1.406       .  A
C1078      C1079   1.399       .  A
C1078      H1083   1.083       .  S
C1079      C1080   1.410       .  A
C1079     Br1087   1.911       .  S
C1080      C1081   1.407       .  A
C1081      C1082   1.398       .  A
C1081      H1084   1.083       .  S
C1082     Br1088   1.920       .  S
C1089      C1090   1.409       .  A
C1089      C1094   1.403       .  A
C1090      C1091   1.393       .  A
C1090     Br1106   1.915       .  S
C1091      C1092   1.400       .  A
C1091      H1095   1.084       .  S
C1092      C1093   1.410       .  A
C1092      C1096   1.479       .  S
C1093      C1094   1.402       .  A
C1093     Br1105   1.918       .  S
C1094      H1097   1.083       .  S
C1096      C1098   1.406       .  A
C1096      C1102   1.408       .  A
C1098      C1099   1.402       .  A
C1098      H1103   1.084       .  S
C1099      C1100   1.408       .  A
C1099     Br1107   1.916       .  S
C1100      C1101   1.397       .  A
C1101      C1102   1.392       .  A
C1101      H1104   1.083       .  S
C1102     Br1108   1.922       .  S
C1109      C1110   1.434       .  A
C1109      C1114   1.415       .  A
C1110      C1111   1.397       .  A
C1110     Br1126   1.915       .  S
C1111      C1112   1.390       .  A
C1111      H1115   1.084       .  S
C1112      C1113   1.402       .  A
C1112      C1116   1.476       .  S
C1113      C1114   1.399       .  A
C1113     Br1125   1.919       .  S
C1114      H1117   1.076       .  S
C1116      C1118   1.403       .  A
C1116      C1122   1.409       .  A
C1118      C1119   1.396       .  A
C1118      H1123   1.084       .  S
C1119      C1120   1.406       .  A
C1119     Br1127   1.917       .  S
C1120      C1121   1.401       .  A
C1121      C1122   1.399       .  A
C1121      H1124   1.084       .  S
C1122     Br1128   1.918       .  S
C1129      C1130   1.405       .  A
C1129      C1134   1.403       .  A
C1130      C1131   1.398       .  A
C1130     Br1146   1.913       .  S
C1131      C1132   1.407       .  A
C1131      H1135   1.083       .  S
C1132      C1133   1.410       .  A
C1132      C1136   1.480       .  S
C1133      C1134   1.394       .  A
C1133     Br1145   1.922       .  S
C1134      H1137   1.084       .  S
C1136      C1138   1.404       .  A
C1136      C1142   1.408       .  A
C1138      C1139   1.395       .  A
C1138      H1143   1.084       .  S
C1139      C1140   1.406       .  A
C1139     Br1147   1.908   1_455  S
C1140      C1141   1.405       .  A
C1141      C1142   1.396       .  A
C1141      H1144   1.082   1_565  S
C1142     Br1148   1.921   1_565  S
C1149      C1150   1.421       .  A
C1149      C1154   1.419       .  A
C1150      C1151   1.402       .  A
C1150     Br1166   1.923       .  S
C1151      C1152   1.401       .  A
C1151      H1155   1.082       .  S
C1152      C1153   1.397       .  A
C1152      C1156   1.473       .  S
C1153      C1154   1.392       .  A
C1153     Br1165   1.923       .  S
C1154      H1157   1.060       .  S
C1156      C1158   1.407       .  A
C1156      C1162   1.404       .  A
C1158      C1159   1.402       .  A
C1158      H1163   1.082       .  S
C1159      C1160   1.405       .  A
C1159     Br1167   1.917       .  S
C1160      C1161   1.398       .  A
C1161      C1162   1.391       .  A
C1161      H1164   1.083       .  S
C1162     Br1168   1.920       .  S
C1169      C1170   1.407       .  A
C1169      C1174   1.399       .  A
C1170      C1171   1.399       .  A
C1170     Br1186   1.917       .  S
C1171      C1172   1.406       .  A
C1171      H1175   1.084       .  S
C1172      C1173   1.413       .  A
C1172      C1176   1.486       .  S
C1173      C1174   1.395       .  A
C1173     Br1185   1.921       .  S
C1174      H1177   1.083   1_455  S
C1176      C1178   1.402       .  A
C1176      C1182   1.405       .  A
C1178      C1179   1.402       .  A
C1178      H1183   1.084       .  S
C1179      C1180   1.422       .  A
C1179     Br1187   1.911       .  S
C1180      C1181   1.414       .  A
C1181      C1182   1.394       .  A
C1181      H1184   1.082       .  S
C1182     Br1188   1.922       .  S
C1189      C1190   1.425       .  A
C1189      C1194   1.412       .  A
C1190      C1191   1.395       .  A
C1190     Br1206   1.913       .  S
C1191      C1192   1.395       .  A
C1191      H1195   1.083       .  S
C1192      C1193   1.408       .  A
C1192      C1196   1.485       .  S
C1193      C1194   1.400       .  A
C1193     Br1205   1.919       .  S
C1194      H1197   1.078       .  S
C1196      C1198   1.398       .  A
C1196      C1202   1.410       .  A
C1198      C1199   1.399       .  A
C1198      H1203   1.083       .  S
C1199      C1200   1.425       .  A
C1199     Br1207   1.925       .  S
C1200      C1201   1.410       .  A
C1201      C1202   1.398       .  A
C1201      H1204   1.080       .  S
C1202     Br1208   1.923       .  S
C1209      C1210   1.415       .  A
C1209      C1214   1.408       .  A
C1210      C1211   1.400       .  A
C1210     Br1226   1.915       .  S
C1211      C1212   1.402       .  A
C1211      H1215   1.084       .  S
C1212      C1213   1.404       .  A
C1212      C1216   1.480       .  S
C1213      C1214   1.396       .  A
C1213     Br1225   1.919       .  S
C1214      H1217   1.080   1_565  S
C1216      C1218   1.402       .  A
C1216      C1222   1.411       .  A
C1218      C1219   1.396       .  A
C1218      H1223   1.084       .  S
C1219      C1220   1.407       .  A
C1219     Br1227   1.919       .  S
C1220      C1221   1.401       .  A
C1221      C1222   1.401       .  A
C1221      H1224   1.084       .  S
C1222     Br1228   1.919       .  S
C1229      C1230   1.421       .  A
C1229      C1234   1.417       .  A
C1230      C1231   1.407       .  A
C1230     Br1246   1.921       .  S
C1231      C1232   1.403       .  A
C1231      H1235   1.083       .  S
C1232      C1233   1.399       .  A
C1232      C1236   1.479       .  S
C1233      C1234   1.394       .  A
C1233     Br1245   1.920       .  S
C1234      H1237   1.080       .  S
C1236      C1238   1.405       .  A
C1236      C1242   1.405       .  A
C1238      C1239   1.404       .  A
C1238      H1243   1.083       .  S
C1239      C1240   1.409       .  A
C1239     Br1247   1.918       .  S
C1240      C1241   1.404       .  A
C1241      C1242   1.396       .  A
C1241      H1244   1.081       .  S
C1242     Br1248   1.919       .  S
C1249      C1250   1.409       .  A
C1249      C1254   1.401       .  A
C1250      C1251   1.396       .  A
C1250     Br1266   1.921       .  S
C1251      C1252   1.401       .  A
C1251      H1255   1.084       .  S
C1252      C1253   1.410       .  A
C1252      C1256   1.480       .  S
C1253      C1254   1.402       .  A
C1253     Br1265   1.917       .  S
C1254      H1257   1.083       .  S
C1256      C1258   1.402       .  A
C1256      C1262   1.404       .  A
C1258      C1259   1.402       .  A
C1258      H1263   1.083       .  S
C1259      C1260   1.415       .  A
C1259     Br1267   1.912       .  S
C1260      C1261   1.409       .  A
C1261      C1262   1.398       .  A
C1261      H1264   1.079       .  S
C1262     Br1268   1.919       .  S
C1269      C1270   1.410       .  A
C1269      C1274   1.406       .  A
C1270      C1271   1.398       .  A
C1270     Br1286   1.908       .  S
C1271      C1272   1.403       .  A
C1271      H1275   1.084       .  S
C1272      C1273   1.405       .  A
C1272      C1276   1.479       .  S
C1273      C1274   1.396       .  A
C1273     Br1285   1.920       .  S
C1274      H1277   1.079       .  S
C1276      C1278   1.403       .  A
C1276      C1282   1.407       .  A
C1278      C1279   1.399       .  A
C1278      H1283   1.083       .  S
C1279      C1280   1.407       .  A
C1279     Br1287   1.909       .  S
C1280      C1281   1.407       .  A
C1281      C1282   1.397       .  A
C1281      H1284   1.084       .  S
C1282     Br1288   1.920       .  S
C1289      C1290   1.407       .  A
C1289      C1294   1.400       .  A
C1290      C1291   1.397       .  A
C1290     Br1306   1.919       .  S
C1291      C1292   1.405       .  A
C1291      H1295   1.083       .  S
C1292      C1293   1.413       .  A
C1292      C1296   1.485       .  S
C1293      C1294   1.397       .  A
C1293     Br1305   1.921       .  S
C1294      H1297   1.082       .  S
C1296      C1298   1.403       .  A
C1296      C1302   1.406       .  A
C1298      C1299   1.403       .  A
C1298      H1303   1.084       .  S
C1299      C1300   1.419       .  A
C1299     Br1307   1.912       .  S
C1300      C1301   1.412       .  A
C1301      C1302   1.392       .  A
C1301      H1304   1.083       .  S
C1302     Br1308   1.920       .  S
C1309      C1310   1.405       .  A
C1309      C1314   1.398       .  A
C1310      C1311   1.402   1_556  A
C1310     Br1326   1.919       .  S
C1311      C1312   1.410       .  A
C1311      H1315   1.083       .  S
C1312      C1313   1.412       .  A
C1312      C1316   1.489       .  S
C1313      C1314   1.396   1_554  A
C1313     Br1325   1.921       .  S
C1314      H1317   1.076       .  S
C1316      C1318   1.399       .  A
C1316      C1322   1.416       .  A
C1318      C1319   1.392       .  A
C1318      H1323   1.084       .  S
C1319      C1320   1.411       .  A
C1319     Br1327   1.909       .  S
C1320      C1321   1.403       .  A
C1321      C1322   1.407       .  A
C1321      H1324   1.083       .  S
C1322     Br1328   1.920       .  S
C1329      C1330   1.424       .  A
C1329      C1334   1.407   1_556  A
C1330      C1331   1.406       .  A
C1330     Br1346   1.916       .  S
C1331      C1332   1.401   1_556  A
C1331      H1335   1.084       .  S
C1332      C1333   1.397       .  A
C1332      C1336   1.470       .  S
C1333      C1334   1.383       .  A
C1333     Br1345   1.924       .  S
C1334      H1337   1.074       .  S
C1336      C1338   1.393       .  A
C1336      C1342   1.402       .  A
C1338      C1339   1.390       .  A
C1338      H1343   1.084       .  S
C1339      C1340   1.422       .  A
C1339     Br1347   1.916       .  S
C1340      C1341   1.417       .  A
C1341      C1342   1.401       .  A
C1341      H1344   1.074       .  S
C1342     Br1348   1.918       .  S
C1349      C1350   1.414       .  A
C1349      C1354   1.403       .  A
C1350      C1351   1.395       .  A
C1350     Br1366   1.924       .  S
C1351      C1352   1.402       .  A
C1351      H1355   1.083       .  S
C1352      C1353   1.414       .  A
C1352      C1356   1.489       .  S
C1353      C1354   1.403       .  A
C1353     Br1365   1.920       .  S
C1354      H1357   1.082       .  S
C1356      C1358   1.407       .  A
C1356      C1362   1.415       .  A
C1358      C1359   1.400   1_554  A
C1358      H1363   1.083       .  S
C1359      C1360   1.406       .  A
C1359     Br1367   1.914       .  S
C1360      C1361   1.400       .  A
C1361      C1362   1.398   1_556  A
C1361      H1364   1.084       .  S
C1362     Br1368   1.922       .  S
C1369      C1370   1.424       .  A
C1369      C1374   1.413       .  A
C1370      C1371   1.400       .  A
C1370     Br1386   1.925       .  S
C1371      C1372   1.400       .  A
C1371      H1375   1.084       .  S
C1372      C1373   1.405       .  A
C1372      C1376   1.481       .  S
C1373      C1374   1.398       .  A
C1373     Br1385   1.921       .  S
C1374      H1377   1.079       .  S
C1376      C1378   1.396       .  A
C1376      C1382   1.411   1_554  A
C1378      C1379   1.394   1_554  A
C1378      H1383   1.084       .  S
C1379      C1380   1.415       .  A
C1379     Br1387   1.911       .  S
C1380      C1381   1.405       .  A
C1381      C1382   1.403       .  A
C1381      H1384   1.083       .  S
C1382     Br1388   1.918       .  S
C1389      C1390   1.412       .  A
C1389      C1394   1.405       .  A
C1390      C1391   1.395       .  A
C1390     Br1406   1.921       .  S
C1391      C1392   1.401       .  A
C1391      H1395   1.084       .  S
C1392      C1393   1.409       .  A
C1392      C1396   1.482       .  S
C1393      C1394   1.406       .  A
C1393     Br1405   1.917       .  S
C1394      H1397   1.083       .  S
C1396      C1398   1.406       .  A
C1396      C1402   1.404       .  A
C1398      C1399   1.406   1_554  A
C1398      H1403   1.083       .  S
C1399      C1400   1.413       .  A
C1399     Br1407   1.918       .  S
C1400      C1401   1.405   1_556  A
C1401      C1402   1.393       .  A
C1401      H1404   1.079       .  S
C1402     Br1408   1.920       .  S
C1409      C1410   1.423       .  A
C1409      C1414   1.416       .  A
C1410      C1411   1.404       .  A
C1410     Br1426   1.923       .  S
C1411      C1412   1.400       .  A
C1411      H1415   1.083       .  S
C1412      C1413   1.401       .  A
C1412      C1416   1.481       .  S
C1413      C1414   1.396       .  A
C1413     Br1425   1.918   1_554  S
C1414      H1417   1.078       .  S
C1416      C1418   1.401   1_554  A
C1416      C1422   1.408       .  A
C1418      C1419   1.398       .  A
C1418      H1423   1.083   1_556  S
C1419      C1420   1.409       .  A
C1419     Br1427   1.912       .  S
C1420      C1421   1.404       .  A
C1421      C1422   1.402   1_556  A
C1421      H1424   1.083       .  S
C1422     Br1428   1.916       .  S
