geometry optimzed in LAMMPS
_audit_creation_date              2020-11-30 
_audit_creation_method            'lammps2cif' 
_symmetry_space_group_name_H-M    'P1' 
_symmetry_Int_Tables_number       1 
_symmetry_cell_setting            triclinic 
loop_ 
_symmetry_equiv_pos_as_xyz 
  x,y,z 
_cell_length_a                    30.882186861610716 
_cell_length_b                    30.935874295028334 
_cell_length_c                    46.28086490912168 
_cell_angle_alpha                 89.86521645484882 
_cell_angle_beta                  90.25131431273735 
_cell_angle_gamma                 121.11265557918358 
loop_ 
_atom_site_label 
_atom_site_type_symbol 
_atom_site_fract_x 
_atom_site_fract_y 
_atom_site_fract_z 
_atom_site_charge 
O1          O  0.46183923  0.99275713  0.31405157    -0.80390
O2          O  0.55230056  0.99492656  0.19988993    -0.80420
O3          O  0.39034102  0.96263443  0.22816599    -0.80420
O4          O  0.54062449  0.94255510  0.29117403    -0.80370
O5          O  0.45708850  0.96244505  0.21053630    -0.80490
O6          O  0.55234159  0.00300245  0.32152750    -0.80410
O7          O  0.54402870  0.93790785  0.23041631    -0.80390
O8          O  0.42495926  0.93787051  0.27797301    -0.80430
C9          C  0.42743250  0.94976415  0.30461487     1.09300
C10         C  0.55081275  0.95436179  0.20470874     1.09180
C11         C  0.41082799  0.95191458  0.20771424     1.09320
C12         C  0.54868659  0.96070975  0.31638353     1.09200
O13         O  0.59935672  0.09587280  0.28755070    -0.80390
O14         O  0.52214009  0.05195530  0.18611666    -0.80470
O15         O  0.42994516  0.02955600  0.27484783    -0.80410
O16         O  0.62631189  0.04162288  0.23169832    -0.80390
O17         O  0.59326843  0.08914338  0.22698304    -0.80440
O18         O  0.50737763  0.08751851  0.28202386    -0.80400
O19         O  0.62705948  0.04390551  0.28970092    -0.80360
O20         O  0.47046276  0.05300173  0.21808542    -0.80430
Co21       Co  0.53066712  0.04486423  0.29931941     1.51530
Co22       Co  0.52488456  0.02904867  0.22187752     1.51690
Co23       Co  0.45274765  0.99317910  0.24858553     1.51570
Co24       Co  0.57956175  0.99142823  0.26083059     1.51470
O25         O  0.52391492  0.01072698  0.26167354    -1.42330
C26         C  0.63179893  0.08601187  0.29635595     1.09220
C27         C  0.48842675  0.06129282  0.19186791     1.09310
C28         C  0.46132326  0.07080264  0.28686116     1.09250
C29         C  0.62811449  0.08035064  0.22100519     1.09230
O30         O  0.02407978  0.55207475  0.32141432    -0.80390
O31         O  0.94661895  0.42456828  0.22300356    -0.80420
O32         O  0.93442961  0.52267364  0.23647095    -0.80420
O33         O  0.95186484  0.41708855  0.28625565    -0.80370
O34         O  0.97483406  0.51731575  0.19997929    -0.80490
O35         O  0.01413761  0.46178216  0.31761385    -0.80410
O36         O  0.96859516  0.37151887  0.23862275    -0.80390
O37         O  0.95744526  0.53718840  0.29538498    -0.80430
C38         C  0.98081636  0.54730748  0.31938608     1.09300
C39         C  0.94367822  0.38157614  0.22071095     1.09180
C40         C  0.94081465  0.52391606  0.20955421     1.09320
C41         C  0.97008489  0.42482497  0.31174360     1.09200
O42         O  0.10162804  0.50240760  0.28019160    -0.80390
O43         O  0.07609843  0.55899510  0.21383456    -0.80470
O44         O  0.05408016  0.61984896  0.28240552    -0.80410
O45         O  0.05529569  0.45427240  0.22178258    -0.80390
O46         O  0.02034780  0.46994252  0.18501123    -0.80440
O47         O  0.10863615  0.59534791  0.28267626    -0.80400
O48         O  0.04478508  0.42364152  0.27940191    -0.80360
O49         O  0.03848388  0.60136506  0.22434315    -0.80430
Co50       Co  0.06138056  0.52766378  0.29809561     1.51530
Co51       Co  0.01414847  0.49287217  0.22098454     1.51690
Co52       Co  0.99678055  0.56556966  0.25963439     1.51570
Co53       Co  0.00107514  0.43899540  0.25403314     1.51470
O54         O  0.01776796  0.51167839  0.26229809    -1.42330
C55         C  0.08730763  0.45820746  0.28856324     1.09220
C56         C  0.06989778  0.59596328  0.20935564     1.09310
C57         C  0.09678179  0.62721806  0.28992249     1.09250
C58         C  0.05036087  0.45701660  0.19417304     1.09230
O59         O  0.51096158  0.41551662  0.28399637    -0.80390
O60         O  0.58786125  0.48995228  0.22522758    -0.80420
O61         O  0.46204376  0.40076084  0.22327830    -0.80420
O62         O  0.62684639  0.58611385  0.28367633    -0.80370
O63         O  0.51086404  0.44233390  0.18618915    -0.80490
O64         O  0.60463724  0.50713198  0.28795111    -0.80410
O65         O  0.62082930  0.57231268  0.22595258    -0.80390
O66         O  0.43216830  0.39342787  0.27719702    -0.80430
C67         C  0.46426338  0.38439705  0.28834185     1.09300
C68         C  0.62272512  0.53400046  0.21784378     1.09180
C69         C  0.47812580  0.40120814  0.19743737     1.09320
C70         C  0.63482958  0.55297344  0.29414936     1.09200
O71         O  0.55312418  0.55099648  0.31702241    -0.80390
O72         O  0.45205187  0.47588673  0.20800469    -0.80470
O73         O  0.42597675  0.48025757  0.27919601    -0.80410
O74         O  0.53508910  0.58663430  0.22380468    -0.80390
O75         O  0.54594793  0.53818981  0.19425807    -0.80440
O76         O  0.46661451  0.46415497  0.31323333    -0.80400
O77         O  0.54055706  0.59532939  0.28359962    -0.80360
O78         O  0.38501147  0.41495756  0.23093466    -0.80430
Co79       Co  0.53423971  0.48452653  0.29820373     1.51530
Co80       Co  0.51946988  0.47905228  0.21989561     1.51690
Co81       Co  0.44990626  0.44997418  0.24968119     1.51570
Co82       Co  0.57634393  0.58031303  0.25429280     1.51470
O83         O  0.52307971  0.50441045  0.25907596    -1.42330
C84         C  0.54705584  0.58739487  0.30962997     1.09220
C85         C  0.40457054  0.44117132  0.20808898     1.09310
C86         C  0.43136729  0.47142808  0.30560670     1.09250
C87         C  0.54216279  0.57611896  0.19865836     1.09230
C88         C  0.90147348  0.59161717  0.41890385     0.42200
N89         N  0.84051745  0.57019532  0.44797886     0.01090
C90         C  0.78297016  0.71433568  0.03493010    -0.06780
H91         H  0.96085028  0.71390633  0.05844260     0.06580
C92         C  0.83806476  0.52946249  0.08601389    -0.07140
Co93       Co  0.83807995  0.65778973  0.47218596     0.74180
N94         N  0.90191736  0.68893216  0.02606360    -0.26310
Co95       Co  0.83159678  0.64775367  0.04807399     0.74070
C96         C  0.87245500  0.56897384  0.10561477     0.42300
N97         N  0.79253523  0.48162359  0.01734883     0.00710
N98         N  0.85350483  0.60228211  0.07038334     0.00810
N99         N  0.78712649  0.71870620  0.48615723    -0.47160
H100        H  0.93208581  0.67638236  0.42581213     0.06570
N101        N  0.90374490  0.69311625  0.49756629     0.01100
N102        N  0.76169458  0.60344266  0.06918865     0.00840
C103        C  0.70892346  0.57106506  0.10463018     0.42440
N104        N  0.79566342  0.48544610  0.48902846    -0.25770
C105        C  0.75871444  0.63629476  0.42334691    -0.06690
N106        N  0.85980631  0.55184754  0.42991261    -0.46880
N107        N  0.74756618  0.61487957  0.09369203    -0.47100
C108        C  0.72077630  0.59047079  0.40804772     0.42220
N109        N  0.80742453  0.69298022  0.49656332     0.01090
N110        N  0.70132092  0.48507077  0.48692222    -0.25790
N111        N  0.86623988  0.61998273  0.44900968    -0.26280
N112        N  0.69798314  0.48194925  0.01524672     0.00730
H113        H  0.64746152  0.44554273  0.45268637     0.06620
H114        H  0.67959827  0.49088579  0.08760927     0.06650
N115        N  0.80540596  0.68962918  0.02514639    -0.26330
N116        N  0.82704167  0.55305915  0.06587749    -0.25950
N117        N  0.74726953  0.56964950  0.44540486     0.01090
C118        C  0.98222293  0.73088435  0.01025091     0.42490
C119        C  0.81199578  0.45579758  0.47899550    -0.07200
N120        N  0.73566541  0.55430731  0.06433718    -0.25940
H121        H  0.81834198  0.48897100  0.08853074     0.06640
N122        N  0.95070096  0.71744661  0.48735324    -0.47170
H123        H  0.81569674  0.44914946  0.45645724     0.06620
C124        C  0.62289871  0.42940895  0.00027499     0.42320
C125        C  0.90584879  0.63721640  0.43107122    -0.06690
Co126      Co  0.77105209  0.52747115  0.46721605     0.73820
N127        N  0.80501786  0.44956345  0.02769833    -0.46880
C128        C  0.77090950  0.73367610  0.00904225     0.42590
N129        N  0.71613077  0.55122710  0.42318489    -0.46870
Co130      Co  0.76311439  0.51768209  0.04045329     0.73890
C131        C  0.70060986  0.53131345  0.08458861    -0.07200
C132        C  0.94990185  0.71203561  0.03603849    -0.06760
N133        N  0.77324301  0.61948534  0.44608586    -0.26290
N134        N  0.88069314  0.61343146  0.09458690    -0.47050
H135        H  0.77490482  0.71728596  0.05731597     0.06600
C136        C  0.65565973  0.45347567  0.47546131    -0.07180
Cl137      Cl  0.80099140  0.58827088  0.00711474    -0.50180
C138        C  0.81841716  0.43228801  0.00477040     0.42350
H139        H  0.77777676  0.67509957  0.41612771     0.06560
N140        N  0.65186740  0.44845057  0.02419938    -0.46890
C141        C  0.71531463  0.13034366  0.40915806     0.42200
N142        N  0.74225317  0.17406292  0.44793098     0.01090
C143        C  0.94695047  0.22849287  0.03382026    -0.06780
H144        H  0.77318506  0.05105272  0.05723419     0.06580
C145        C  0.70397863  0.16613271  0.08758750    -0.07140
Co146      Co  0.83286141  0.17596017  0.47157080     0.74180
N147        N  0.80046867  0.10973754  0.02472129    -0.26310
Co148      Co  0.83025736  0.17881288  0.04753349     0.74070
C149        C  0.71064013  0.13217534  0.10628836     0.42300
N150        N  0.69985994  0.21547988  0.01895756     0.00710
N151        N  0.76205076  0.15410501  0.07017650     0.00810
N152        N  0.94576684  0.22534292  0.48498990    -0.47160
H153        H  0.77096558  0.10209000  0.41464449     0.06570
N154        N  0.80134536  0.10842875  0.49610844     0.01100
N155        N  0.85718009  0.24732776  0.06990495     0.00840
C156        C  0.88301142  0.29969897  0.10575852     0.42440
N157        N  0.70190458  0.21441239  0.49059446    -0.25770
C158        C  0.89622807  0.26303091  0.42657061    -0.06690
N159        N  0.71096914  0.16298545  0.42606538    -0.46880
N160        N  0.88681174  0.26219475  0.09318182    -0.47100
C161        C  0.89012350  0.30320498  0.41371363     0.42220
N162        N  0.89945824  0.20534021  0.49577255     0.01090
N163        N  0.79805358  0.30903939  0.49089373    -0.25790
N164        N  0.76736020  0.15018368  0.44692684    -0.26280
N165        N  0.79698532  0.31090096  0.01926080     0.00730
H166        H  0.81358884  0.36353082  0.45738645     0.06620
H167        H  0.82977873  0.32779352  0.09252299     0.06650
N168        N  0.89885716  0.20677958  0.02434987    -0.26330
N169        N  0.73814616  0.17897231  0.06679622    -0.25950
N170        N  0.83711737  0.26789111  0.44813860     0.01090
C171        C  0.76630640  0.03005073  0.00897275     0.42490
C172        C  0.65634880  0.20027624  0.47952978    -0.07200
N173        N  0.83274558  0.27180308  0.06717864    -0.25940
H174        H  0.68374280  0.18541732  0.09157606     0.06640
N175        N  0.78126780  0.06165911  0.48591695    -0.47170
H176        H  0.64762317  0.19936430  0.45679710     0.06620
C177        C  0.82007945  0.38587681  0.00527624     0.42320
C178        C  0.75259124  0.12108911  0.42310309    -0.06690
Co179      Co  0.76985536  0.24117470  0.46952320     0.73820
N180        N  0.65447075  0.20375327  0.02829128    -0.46880
C181        C  0.97792336  0.24076004  0.00765547     0.42590
N182        N  0.85277842  0.30336957  0.42827755    -0.46870
Co183      Co  0.76681580  0.24439486  0.04299328     0.73890
C184        C  0.84770874  0.30641655  0.08802008    -0.07200
C185        C  0.77903459  0.06201628  0.03472142    -0.06760
N186        N  0.86135791  0.24311360  0.44768518    -0.26290
N187        N  0.74737822  0.12643925  0.09414908    -0.47050
H188        H  0.95884421  0.23539685  0.05619905     0.06600
C189        C  0.81288394  0.35471962  0.48007293    -0.07180
Cl190      Cl  0.79993727  0.20992791  0.00799675    -0.50180
C191        C  0.62484377  0.19296927  0.00452633     0.42350
H192        H  0.91847250  0.24744722  0.41911756     0.06560
N193        N  0.80894894  0.35609876  0.02884318    -0.46890
C194        C  0.30568377  0.87073817  0.40634893     0.42200
N195        N  0.27418410  0.82317796  0.44376389     0.01090
C196        C  0.07299342  0.77205010  0.03314931    -0.06780
H197        H  0.24374145  0.95091214  0.04919993     0.06580
C198        C  0.32009382  0.84678942  0.08120956    -0.07140
Co199      Co  0.18205373  0.81989844  0.46709277     0.74180
N200        N  0.21524321  0.88975169  0.01833228    -0.26310
Co201      Co  0.18849209  0.82353374  0.04303318     0.74070
C202        C  0.31703807  0.88674860  0.09566999     0.42300
N203        N  0.31820903  0.78740917  0.01766373     0.00710
N204        N  0.25767627  0.85196867  0.06414344     0.00810
N205        N  0.06714792  0.76888443  0.48440418    -0.47160
H206        H  0.24901078  0.89826284  0.41042338     0.06570
N207        N  0.21283672  0.88860208  0.48976923     0.01100
N208        N  0.16368839  0.75733979  0.06728808     0.00840
C209        C  0.13452370  0.70274527  0.10135857     0.42440
N210        N  0.31703571  0.78698469  0.48923781    -0.25770
C211        C  0.12675940  0.73745764  0.41999999    -0.06690
N212        N  0.30811878  0.83653125  0.42313289    -0.46880
N213        N  0.13228474  0.74165083  0.08963574    -0.47100
C214        C  0.13732655  0.70129814  0.40587133     0.42220
N215        N  0.11523402  0.79028351  0.49300183     0.01090
N216        N  0.22170301  0.69095239  0.49035498    -0.25790
N217        N  0.24831707  0.84632744  0.44199557    -0.26280
N218        N  0.22361247  0.69048919  0.01877356     0.00730
H219        H  0.20755335  0.63573540  0.45775420     0.06620
H220        H  0.18713609  0.67368439  0.09021949     0.06650
N221        N  0.11922981  0.79247915  0.02152229    -0.26330
N222        N  0.28142169  0.82676712  0.06272081    -0.25950
N223        N  0.18043431  0.72831062  0.44526616     0.01090
C224        C  0.24775045  0.96749255  0.00041970     0.42490
C225        C  0.36360007  0.80190851  0.47956553    -0.07200
N226        N  0.18753425  0.73226804  0.06496906    -0.25940
H227        H  0.34317072  0.83088325  0.08649693     0.06640
N228        N  0.23209232  0.93431484  0.47822566    -0.47170
H229        H  0.37376040  0.80205465  0.45721153     0.06620
C230        C  0.20328407  0.61553684  0.00588805     0.42320
C231        C  0.26571208  0.87757200  0.41890883    -0.06690
Co232      Co  0.24829893  0.75744131  0.46729809     0.73820
N233        N  0.36323870  0.80109419  0.02841765    -0.46880
C234        C  0.03841517  0.75645438  0.00869757     0.42590
N235        N  0.17036131  0.69772418  0.42316192    -0.46870
Co236      Co  0.25255711  0.75885630  0.04109401     0.73890
C237        C  0.17079382  0.69642363  0.08512518    -0.07200
C238        C  0.23660022  0.93803244  0.02702323    -0.06760
N239        N  0.15563698  0.75258392  0.44402115    -0.26290
N240        N  0.27687221  0.88738723  0.08440360    -0.47050
H241        H  0.06472881  0.76864700  0.05601009     0.06600
C242        C  0.20832270  0.64523516  0.48030238    -0.07180
Cl243      Cl  0.21764159  0.78984169  0.00457025    -0.50180
C244        C  0.39415032  0.81148808  0.00571812     0.42350
H245        H  0.10842889  0.75625948  0.41101798     0.06560
N246        N  0.21403969  0.64622077  0.02905510    -0.46890
C247        C  0.44137359  0.81144424  0.00777018     0.42200
N248        N  0.49282095  0.78791315  0.49582233     0.01090
C249        C  0.63908299  0.73483592  0.08462089    -0.06780
H250        H  0.68073870  0.90991067  0.09658011     0.06580
C251        C  0.72463740  0.94188664  0.48150627    -0.07140
Co252      Co  0.53374446  0.75984448  0.04551327     0.74180
N253        N  0.62564675  0.85177039  0.06825655    -0.26310
Co254      Co  0.66549333  0.82680395  0.04375659     0.74070
C255        C  0.74140437  0.97381117  0.00740408     0.42300
N256        N  0.61784237  0.85014278  0.44699942     0.00710
N257        N  0.70287895  0.89505400  0.01992273     0.00810
N258        N  0.55388224  0.69375263  0.08234682    -0.47160
H259        H  0.45257522  0.80277384  0.05631373     0.06570
N260        N  0.57561877  0.82610641  0.06830988     0.01100
N261        N  0.70283448  0.79825047  0.01940733     0.00840
C262        C  0.74354644  0.76165009  0.00710216     0.42440
N263        N  0.56827340  0.82490843  0.45010695    -0.25770
C264        C  0.46137853  0.64465457  0.03196350    -0.06690
N265        N  0.46158502  0.80110576  0.48505086    -0.46880
N266        N  0.72777218  0.77715409  0.02992347    -0.47100
C267        C  0.44089408  0.61536138  0.00535645     0.42220
N268        N  0.57466318  0.73326932  0.06530211     0.01090
N269        N  0.56635837  0.73277263  0.44953224    -0.25790
N270        N  0.49359885  0.78763015  0.02424073    -0.26280
N271        N  0.61576741  0.75609846  0.44613589     0.00730
H272        H  0.50288201  0.67531063  0.42694939     0.06620
H273        H  0.72940858  0.76777294  0.45866113     0.06650
N274        N  0.62454114  0.75840861  0.06604106    -0.26330
N275        N  0.70109721  0.89394904  0.49130562    -0.25950
N276        N  0.49108469  0.69281760  0.49464941     0.01090
C277        C  0.59559318  0.87812956  0.10305167     0.42490
C278        C  0.54725451  0.84054197  0.43104737    -0.07200
N279        N  0.70063810  0.79716994  0.49083102    -0.25940
H280        H  0.72761536  0.95299576  0.45908606     0.06640
N281        N  0.55631116  0.84027582  0.08898617    -0.47170
H282        H  0.50711709  0.82297357  0.42697753     0.06620
C283        C  0.58333009  0.69746519  0.41396019     0.42320
C284        C  0.46226042  0.80224664  0.03393748    -0.06690
Co285      Co  0.52965454  0.75975954  0.47261506     0.73820
N286        N  0.63238720  0.88233517  0.42515746    -0.46880
C287        C  0.59150567  0.69169758  0.09547502     0.42590
N288        N  0.46048003  0.64792148  0.48316651    -0.46870
Co289      Co  0.66051321  0.82503898  0.46832229     0.73890
C290        C  0.72551945  0.77491582  0.48108485    -0.07200
C291        C  0.64191664  0.88622481  0.08956549    -0.06760
N292        N  0.49208411  0.69229106  0.02299404    -0.26290
N293        N  0.72630773  0.94194099  0.03034343    -0.47050
H294        H  0.67778979  0.74817343  0.09072637     0.06600
C295        C  0.54319973  0.69552288  0.43077962    -0.07180
Cl296      Cl  0.59757844  0.79312233  0.00759155    -0.50180
C297        C  0.58935965  0.87765412  0.41446441     0.42350
H298        H  0.45259829  0.63253307  0.05421384     0.06560
N299        N  0.62780202  0.73686552  0.42403479    -0.46890
C300        C  0.13196922  0.41908418  0.40448663     0.42200
N301        N  0.17905527  0.43473891  0.44232427     0.01090
C302        C  0.23075682  0.27863741  0.02396382    -0.06780
H303        H  0.06036316  0.27913179  0.05306234     0.06580
C304        C  0.17425634  0.45778111  0.08076441    -0.07140
Co305      Co  0.17725739  0.34255747  0.46401404     0.74180
N306        N  0.11485495  0.30697907  0.01848849    -0.26310
Co307      Co  0.18387757  0.34404248  0.04025745     0.74070
C308        C  0.13355526  0.41586054  0.09597854     0.42300
N309        N  0.22699594  0.51548503  0.01676429     0.00710
N310        N  0.16172509  0.38698709  0.06405979     0.00810
N311        N  0.22679287  0.27848955  0.47517439    -0.47160
H312        H  0.10033224  0.33358963  0.40900322     0.06360
N313        N  0.11077336  0.30576103  0.48999476     0.01100
N314        N  0.25286646  0.38363812  0.06243727     0.00840
C315        C  0.30851155  0.40689796  0.09618537     0.42440
N316        N  0.22374114  0.51356111  0.48839262    -0.25770
C317        C  0.26011837  0.36890774  0.41594106    -0.06690
N318        N  0.16796676  0.45605720  0.42106151    -0.46880
N319        N  0.26781908  0.36628131  0.08421229    -0.47100
C320        C  0.30162009  0.41657405  0.40430804     0.42220
N321        N  0.20651134  0.30341950  0.48670522     0.01090
N322        N  0.31714653  0.51205199  0.48641459    -0.25790
N323        N  0.15264259  0.38486158  0.44099714    -0.26280
N324        N  0.31905360  0.51117878  0.01480111     0.00730
H325        H  0.37328961  0.55734527  0.45447711     0.06620
H326        H  0.34024313  0.49061378  0.08653739     0.06650
N327        N  0.20875430  0.30430308  0.01529688    -0.26330
N328        N  0.18925497  0.43656584  0.06177274    -0.25950
N329        N  0.27070673  0.43258854  0.44098061     0.01090
C330        C  0.03389466  0.26652908  0.00581966     0.42490
C331        C  0.20935487  0.54525199  0.47919051    -0.07200
N332        N  0.27964313  0.43341302  0.06074412    -0.25940
H333        H  0.19359151  0.49779274  0.08529399     0.06640
N334        N  0.06253794  0.28185921  0.48146074    -0.47170
H335        H  0.20657945  0.55376150  0.45681918     0.06620
C336        C  0.39475373  0.56590489  0.00279089     0.42320
C337        C  0.12166323  0.37136213  0.41779395    -0.06690
Co338      Co  0.24764177  0.47323518  0.46461876     0.73820
N339        N  0.21676565  0.54881650  0.02789073    -0.46880
C340        C  0.24273178  0.26155759  0.99740942     0.42590
N341        N  0.30562445  0.45384651  0.42090258    -0.46870
Co342      Co  0.25394960  0.47434109  0.03846520     0.73890
C343        C  0.31622046  0.45126986  0.08075154    -0.07200
C344        C  0.06857181  0.28315689  0.03018824    -0.06760
N345        N  0.24330914  0.38280004  0.43892637    -0.26290
N346        N  0.12797054  0.37252056  0.08521141    -0.47050
H347        H  0.23876477  0.27383221  0.04612147     0.06600
C348        C  0.36363420  0.54544435  0.47670487    -0.07180
Cl349      Cl  0.21563382  0.40842296  0.00176051    -0.50180
C350        C  0.20460741  0.56857757  0.00534711     0.42350
H351        H  0.24282981  0.33118980  0.40713029     0.06560
N352        N  0.36430209  0.54316227  0.02548718    -0.46890
C353        C  0.57661365  0.19172045  0.00382569     0.42200
N354        N  0.52264940  0.21057759  0.48841845     0.01090
C355        C  0.37123564  0.24929200  0.08219586    -0.06780
H356        H  0.33056867  0.08391836  0.08665116     0.06580
C357        C  0.29054076  0.05416561  0.47150055    -0.07140
Co358      Co  0.47699687  0.23639246  0.03670241     0.74180
N359        N  0.38508013  0.14323768  0.05862775    -0.26310
Co360      Co  0.34667795  0.16879386  0.03366055     0.74070
C361        C  0.27262059  0.02314124  0.99767298     0.42300
N362        N  0.39798363  0.14591346  0.43610033     0.00710
N363        N  0.31086835  0.10181461  0.00939931     0.00810
N364        N  0.45597162  0.29442570  0.07842723    -0.47160
H365        H  0.55982299  0.19948705  0.05124744     0.06570
N366        N  0.43498143  0.16898238  0.05839101     0.01100
N367        N  0.31107445  0.19777505  0.00823964     0.00840
C368        C  0.27031983  0.23399209  0.99517139     0.42440
N369        N  0.44772279  0.17185446  0.43925355    -0.25770
C370        C  0.55012509  0.35041067  0.02547732    -0.06690
N371        N  0.55721473  0.20030454  0.47971020    -0.46880
N372        N  0.28573997  0.21851997  0.01823585    -0.47100
C373        C  0.57468321  0.38122045  0.00007353     0.42220
N374        N  0.43556134  0.26218829  0.05701024     0.01090
N375        N  0.44801792  0.26408466  0.43865263    -0.25790
N376        N  0.51930343  0.21059020  0.01675184    -0.26280
N377        N  0.39844332  0.23864755  0.43501000     0.00730
H378        H  0.50996263  0.32168055  0.41475041     0.06620
H379        H  0.28538762  0.22807755  0.44696802     0.06650
N380        N  0.38573949  0.23502061  0.05833760    -0.26330
N381        N  0.31396531  0.10232194  0.48088356    -0.25950
N382        N  0.52256966  0.30511437  0.48672117     0.01090
C383        C  0.41610059  0.11542029  0.09230564     0.42490
C384        C  0.46853217  0.15853506  0.41851812    -0.07200
N385        N  0.31387104  0.19874840  0.47968908    -0.25940
H386        H  0.28809823  0.04242686  0.44926010     0.06640
N387        N  0.45472715  0.15354367  0.07805038    -0.47170
H388        H  0.50857102  0.17803730  0.41388140     0.06620
C389        C  0.42829874  0.29041275  0.39916003     0.42320
C390        C  0.55169019  0.19879137  0.02843818    -0.06690
Co391      Co  0.48548482  0.23792826  0.46334370     0.73820
N392        N  0.38379061  0.11652048  0.41280226    -0.46880
C393        C  0.41865978  0.28849384  0.09573903     0.42590
N394        N  0.55626951  0.35052262  0.47682001    -0.46870
Co395      Co  0.35455775  0.17066219  0.45765197     0.73890
C396        C  0.28900832  0.22096880  0.46948022    -0.07200
C397        C  0.36926426  0.10827571  0.07975270    -0.06760
N398        N  0.51890969  0.30403968  0.01502628    -0.26290
N399        N  0.28686141  0.05537510  0.02022119    -0.47050
H400        H  0.33361945  0.22929175  0.09128437     0.06600
C401        C  0.46964002  0.29892397  0.41810942    -0.07180
Cl402      Cl  0.41586745  0.20337803  0.99775564    -0.50180
C403        C  0.42635875  0.12220553  0.40065984     0.42350
H404        H  0.55767839  0.36025975  0.04810941     0.06560
N405        N  0.38509985  0.25265212  0.41106090    -0.46890
C406        C  0.45742640  0.35536557  0.17973553    -0.05720
C407        C  0.49181679  0.34809152  0.16434548    -0.33150
C408        C  0.47810306  0.32247797  0.13815149     0.36100
C409        C  0.42927172  0.30481619  0.12636502    -0.06080
C410        C  0.39264751  0.30557611  0.14382317    -0.33050
C411        C  0.40632449  0.32972527  0.17085670     0.36010
H412        H  0.53075419  0.36590721  0.17146866     0.16380
O413        O  0.51414103  0.31802567  0.12351718    -0.60550
H414        H  0.35439381  0.29021026  0.13588734     0.16390
O415        O  0.37063278  0.33239598  0.18689985    -0.60640
H416        H  0.36065114  0.30638320  0.20213905     0.43390
H417        H  0.50825707  0.28438847  0.12899060     0.43340
C418        C  0.44868311  0.34750230  0.31235704    -0.05720
C419        C  0.48484766  0.33880305  0.32483377    -0.33150
C420        C  0.47768682  0.31777518  0.35242684     0.36100
C421        C  0.43373176  0.30552079  0.36834683    -0.06080
C422        C  0.39499747  0.30862815  0.35458625    -0.33050
C423        C  0.40197056  0.32922025  0.32673464     0.36010
H424        H  0.52016728  0.35073507  0.31379898     0.16380
O425        O  0.51352634  0.30846260  0.36323430    -0.60550
H426        H  0.36010785  0.29734171  0.36594764     0.16390
O427        O  0.36368305  0.33307798  0.31429797    -0.60640
H428        H  0.35919668  0.35634854  0.32685359     0.43390
H429        H  0.54429664  0.34212286  0.36634295     0.43340
C430        C  0.69303035  0.56194872  0.13550317    -0.05720
C431        C  0.66059538  0.51206840  0.14514915    -0.33150
C432        C  0.64343099  0.50160678  0.17360429     0.36100
C433        C  0.65623349  0.54137834  0.19302642    -0.06080
C434        C  0.69212070  0.59096061  0.18424232    -0.33050
C435        C  0.71059611  0.60135501  0.15585573     0.36010
H436        H  0.64690935  0.48035479  0.13062879     0.16380
O437        O  0.61067454  0.45241462  0.18132204    -0.60550
H438        H  0.70341431  0.62235911  0.19886372     0.16390
O439        O  0.74487904  0.65025408  0.14823750    -0.60640
H440        H  0.72433852  0.66385651  0.14048086     0.43390
H441        H  0.63231460  0.44045575  0.18960201     0.43340
C442        C  0.70586428  0.58492799  0.37722064    -0.05720
C443        C  0.69520565  0.54068971  0.36239962    -0.33150
C444        C  0.67636162  0.53139808  0.33409662     0.36100
C445        C  0.66840086  0.56690963  0.31986486    -0.06080
C446        C  0.68346984  0.61307076  0.33386590    -0.33050
C447        C  0.70126940  0.62193741  0.36239081     0.36010
H448        H  0.70004077  0.51222067  0.37303463     0.16380
O449        O  0.66474915  0.48701173  0.32085475    -0.60550
H450        H  0.67818803  0.64119070  0.32341124     0.16390
O451        O  0.70987326  0.66485282  0.37623415    -0.60640
H452        H  0.74273520  0.69230301  0.36871802     0.43390
H453        H  0.63216139  0.46088787  0.32941123     0.43340
C454        C  0.55356580  0.61042290  0.17481222    -0.05720
C455        C  0.60449365  0.64548963  0.16894256    -0.33150
C456        C  0.61846621  0.67168701  0.14278347     0.36100
C457        C  0.58102495  0.66194874  0.12207119    -0.06080
C458        C  0.53005546  0.62575914  0.12808484    -0.33050
C459        C  0.51626186  0.60037387  0.15431662     0.36010
H460        H  0.63360671  0.65144318  0.18436066     0.16380
O461        O  0.66853157  0.70579649  0.13768172    -0.60550
H462        H  0.50043921  0.61712985  0.11244767     0.16390
O463        O  0.46663117  0.56419276  0.15921716    -0.60640
H464        H  0.45248549  0.58166113  0.17009243     0.43390
H465        H  0.67571813  0.73708047  0.14777682     0.43340
C466        C  0.55243320  0.62268889  0.33216988    -0.05720
C467        C  0.51632809  0.60404875  0.35377780    -0.33150
C468        C  0.52720476  0.62643156  0.38079645     0.36100
C469        C  0.57401337  0.67144930  0.38593616    -0.06080
C470        C  0.60866197  0.69326615  0.36316699    -0.33050
C471        C  0.59822133  0.66879111  0.33615336     0.36010
H472        H  0.48022984  0.57043598  0.35000345     0.16380
O473        O  0.49209825  0.60260826  0.40220553    -0.60550
H474        H  0.64363088  0.72894263  0.36634219     0.16390
O475        O  0.63167146  0.68979864  0.31353503    -0.60640
H476        H  0.66628702  0.70904118  0.32182165     0.43390
H477        H  0.50152572  0.57992909  0.41181261     0.43340
C478        C  0.37681705  0.43065997  0.18016627    -0.05720
C479        C  0.40516474  0.44017893  0.15467431    -0.33150
C480        C  0.38233916  0.42945678  0.12749372     0.36100
C481        C  0.33012208  0.40892238  0.12499982    -0.06080
C482        C  0.30100081  0.39849388  0.15024864    -0.33050
C483        C  0.32406911  0.40911440  0.17780389     0.36010
H484        H  0.44560276  0.45576746  0.15566452     0.16380
O485        O  0.41146475  0.43884952  0.10331305    -0.60550
H486        H  0.26075873  0.38387539  0.14854683     0.16390
O487        O  0.29509043  0.39967731  0.20201716    -0.60640
H488        H  0.29639725  0.43178720  0.20612740     0.43390
H489        H  0.42604747  0.47523513  0.09911618     0.43340
C490        C  0.33251052  0.42777374  0.37824091    -0.05720
C491        C  0.31122353  0.41719890  0.35030246    -0.33150
C492        C  0.34258536  0.43546556  0.32567862     0.36100
C493        C  0.39561743  0.46357462  0.32912677    -0.06080
C494        C  0.41577405  0.47357299  0.35733531    -0.33050
C495        C  0.38502679  0.45724869  0.38148212     0.36010
H496        H  0.27051469  0.39551521  0.34762571     0.16380
O497        O  0.32134371  0.42192565  0.29867886    -0.60550
H498        H  0.45617889  0.49211703  0.36092435     0.16390
O499        O  0.40688938  0.46996912  0.40841892    -0.60640
H500        H  0.41259899  0.44229592  0.41391578     0.43390
H501        H  0.31597015  0.44955030  0.29256950     0.43340
C502        C  0.88419090  0.56076725  0.13562073    -0.05720
C503        C  0.92871559  0.59788874  0.14889985    -0.33150
C504        C  0.94434328  0.58827330  0.17532155     0.36100
C505        C  0.91583953  0.54054756  0.18880391    -0.06080
C506        C  0.86887546  0.50533931  0.17712819    -0.33050
C507        C  0.85261581  0.51516480  0.15086980     0.36010
H508        H  0.95276662  0.63364192  0.13814163     0.16380
O509        O  0.98912481  0.62515329  0.18695306    -0.60550
H510        H  0.84584364  0.46907333  0.18753880     0.16390
O511        O  0.80552212  0.48016477  0.14062738    -0.60640
H512        H  0.80741856  0.45002578  0.13558392     0.43390
H513        H  0.97976494  0.64342153  0.20075289     0.43340
C514        C  0.96068651  0.55925603  0.34505135    -0.05720
C515        C  0.91425339  0.55716903  0.34325335    -0.33150
C516        C  0.89573701  0.57035561  0.36697834     0.36100
C517        C  0.92430655  0.58704248  0.39260861    -0.06080
C518        C  0.97094117  0.59038647  0.39443559    -0.33050
C519        C  0.98906658  0.57606785  0.37109711     0.36010
H520        H  0.89197510  0.54490054  0.32356955     0.16380
O521        O  0.84962906  0.56677672  0.36502963    -0.60550
H522        H  0.99236288  0.60202548  0.41445215     0.16390
O523        O  0.03450346  0.57858616  0.37419702    -0.60640
H524        H  0.02598259  0.54530899  0.38214966     0.43390
H525        H  0.82429564  0.53092553  0.36924133     0.43340
C526        C  0.89555629  0.31564552  0.13658663    -0.05720
C527        C  0.87030073  0.33645233  0.15087913    -0.33150
C528        C  0.88248353  0.35404862  0.17931199     0.36100
C529        C  0.91987121  0.35033172  0.19456596    -0.06080
C530        C  0.94271604  0.32636082  0.18114317    -0.33050
C531        C  0.93147998  0.30984685  0.15229215     0.36010
H532        H  0.84138392  0.34025354  0.14005156     0.16380
O533        O  0.85814862  0.37576451  0.19186626    -0.60550
H534        H  0.97187080  0.32348206  0.19238658     0.16390
O535        O  0.95715498  0.28980835  0.13944106    -0.60640
H536        H  0.98790294  0.31910969  0.13110834     0.43390
H537        H  0.87429993  0.41016952  0.18350129     0.43340
C538        C  0.94457295  0.38754448  0.33480616    -0.05720
C539        C  0.97134128  0.36753793  0.34815273    -0.33150
C540        C  0.95360759  0.33860140  0.37330167     0.36100
C541        C  0.90843813  0.32980502  0.38578893    -0.06080
C542        C  0.88059811  0.34847321  0.37177829    -0.33050
C543        C  0.89844369  0.37721145  0.34644458     0.36010
H544        H  0.00712121  0.37577962  0.33946153     0.16380
O545        O  0.98251590  0.32233836  0.38648961    -0.60550
H546        H  0.84535757  0.34180083  0.38081242     0.16390
O547        O  0.87186195  0.39688313  0.33409410    -0.60640
H548        H  0.88550879  0.43052340  0.34316645     0.43390
H549        H  0.97733177  0.29315513  0.37483672     0.43340
C550        C  0.07953792  0.44872744  0.17235245    -0.05720
C551        C  0.09080634  0.47808273  0.14740831    -0.33150
C552        C  0.10423457  0.46468658  0.12211666     0.36100
C553        C  0.11051047  0.42287193  0.12170001    -0.06080
C554        C  0.10255426  0.39464321  0.14707922    -0.33050
C555        C  0.08639431  0.40712736  0.17256108     0.36010
H556        H  0.08676737  0.51066762  0.14694787     0.16380
O557        O  0.10880743  0.49143295  0.09737649    -0.60550
H558        H  0.10928800  0.36357733  0.14721056     0.16390
O559        O  0.07783579  0.37934218  0.19734988    -0.60640
H560        H  0.05610478  0.34338759  0.19173936     0.43390
H561        H  0.13750610  0.52626431  0.10086871     0.43340
C562        C  0.12216852  0.42884772  0.37418761    -0.05720
C563        C  0.10754065  0.39209000  0.35240706    -0.33150
C564        C  0.09992781  0.40219487  0.32366253     0.36100
C565        C  0.10722395  0.44978312  0.31614382    -0.06080
C566        C  0.12392901  0.48700956  0.33772238    -0.33050
C567        C  0.13100422  0.47689272  0.36633215     0.36010
H568        H  0.10163021  0.35528690  0.35759586     0.16380
O569        O  0.08442366  0.36502627  0.30318637    -0.60550
H570        H  0.12856742  0.52346036  0.33287860     0.16390
O571        O  0.14399261  0.51365738  0.38681625    -0.60640
H572        H  0.18081111  0.53745227  0.38432681     0.43390
H573        H  0.04771158  0.34198139  0.30654438     0.43340
C574        C  0.11441280  0.67855021  0.12937116    -0.05720
C575        C  0.08461353  0.62615903  0.12958862    -0.33150
C576        C  0.07030161  0.59962650  0.15551677     0.36100
C577        C  0.08850225  0.62506703  0.18213700    -0.06080
C578        C  0.11745724  0.67812515  0.18207425    -0.33050
C579        C  0.13080961  0.70498045  0.15576371     0.36010
H580        H  0.07189270  0.60547721  0.10940082     0.16380
O581        O  0.03663532  0.54877338  0.15451029    -0.60550
H582        H  0.12991269  0.69856280  0.20231305     0.16390
O583        O  0.16081015  0.75660956  0.15602559    -0.60640
H584        H  0.19596388  0.76379069  0.15458367     0.43390
H585        H  0.00468638  0.54467343  0.14678809     0.43340
C586        C  0.13333766  0.68873074  0.37457852    -0.05720
C587        C  0.10808417  0.70376674  0.35555251    -0.33150
C588        C  0.10226241  0.69027000  0.32630353     0.36100
C589        C  0.12070653  0.65995174  0.31559325    -0.06080
C590        C  0.15013934  0.64920204  0.33398471    -0.33050
C591        C  0.15643220  0.66309408  0.36312258     0.36010
H592        H  0.09127910  0.72469763  0.36340251     0.16380
O593        O  0.07479488  0.70348041  0.30896086    -0.60550
H594        H  0.16481263  0.62608043  0.32651081     0.16390
O595        O  0.18271217  0.64845753  0.38047981    -0.60640
H596        H  0.21881933  0.67484505  0.37790489     0.43390
H597        H  0.10032647  0.73418834  0.29855841     0.43340
C598        C  0.38484402  0.93221959  0.17960400    -0.05720
C599        C  0.33715561  0.92639226  0.17448000    -0.33150
C600        C  0.31515364  0.91405946  0.14684074     0.36100
C601        C  0.34094546  0.90737634  0.12388714    -0.06080
C602        C  0.38869840  0.91405547  0.12888819    -0.33050
C603        C  0.41048811  0.92585489  0.15625982     0.36010
H604        H  0.31704688  0.93190512  0.19181980     0.16380
O605        O  0.26767037  0.90642582  0.14289126    -0.60550
H606        H  0.40916543  0.90924869  0.11144935     0.16390
O607        O  0.45756181  0.93215997  0.15955352    -0.60640
H608        H  0.45133581  0.89800941  0.16393071     0.43390
H609        H  0.27317193  0.94022319  0.13827017     0.43340
C610        C  0.38848579  0.91659532  0.32578732    -0.05720
C611        C  0.34427393  0.91868314  0.32860598    -0.33150
C612        C  0.31624103  0.90384933  0.35447708     0.36100
C613        C  0.33230821  0.88635624  0.37799818    -0.06080
C614        C  0.37426032  0.88070208  0.37404358    -0.33050
C615        C  0.40194525  0.89552504  0.34837838     0.36010
H616        H  0.33292958  0.93432939  0.31126976     0.16380
O617        O  0.27422548  0.90786505  0.35661713    -0.60550
H618        H  0.38683836  0.86602080  0.39131823     0.16390
O619        O  0.44372486  0.89133581  0.34607827    -0.60640
H620        H  0.43068744  0.85685712  0.33838284     0.43390
H621        H  0.24561043  0.87455916  0.35040148     0.43340
C622        C  0.58968331  0.89886472  0.13007309    -0.05720
C623        C  0.57519776  0.86988021  0.15557682    -0.33150
C624        C  0.56226472  0.88670815  0.18049188     0.36100
C625        C  0.56298348  0.93254096  0.17968539    -0.06080
C626        C  0.57784891  0.96103880  0.15378550    -0.33050
C627        C  0.59123689  0.94467634  0.12938038     0.36010
H628        H  0.57307291  0.83381064  0.15595956     0.16380
O629        O  0.54887221  0.85813509  0.20517047    -0.60550
H630        H  0.57908070  0.99659677  0.15209441     0.16390
O631        O  0.60293996  0.97238719  0.10437020    -0.60640
H632        H  0.64029065  0.99447728  0.10455760     0.43390
H633        H  0.51170925  0.83514681  0.20373854     0.43340
C634        C  0.56222361  0.93728454  0.33937953    -0.05720
C635        C  0.53705947  0.88484462  0.34244789    -0.33150
C636        C  0.54710783  0.86400198  0.36650252     0.36100
C637        C  0.58430561  0.89613797  0.38668592    -0.06080
C638        C  0.61316057  0.94759750  0.38173750    -0.33050
C639        C  0.60234992  0.96806755  0.35819812     0.36010
H640        H  0.50841973  0.86033214  0.32699123     0.16380
O641        O  0.52104959  0.81253389  0.37002065    -0.60550
H642        H  0.64287907  0.97225312  0.39669084     0.16390
O643        O  0.63315724  0.01814943  0.35284632    -0.60640
H644        H  0.66136088  0.01981911  0.34172947     0.43390
H645        H  0.48579593  0.80290006  0.37454171     0.43340
C646        C  0.69602906  0.12342426  0.13732213    -0.05720
C647        C  0.67764037  0.15165729  0.15082703    -0.33150
C648        C  0.65984453  0.14175556  0.17929431     0.36100
C649        C  0.66059624  0.10335981  0.19514554    -0.06080
C650        C  0.68320215  0.07826772  0.18247257    -0.33050
C651        C  0.70046037  0.08780724  0.15389117     0.36010
H652        H  0.67576070  0.18106451  0.13932525     0.16380
O653        O  0.64059513  0.16897885  0.19109483    -0.60550
H654        H  0.68430921  0.04829509  0.19395072     0.16390
O655        O  0.71837078  0.05961129  0.14185459    -0.60640
H656        H  0.75453589  0.07690333  0.14753015     0.43390
H657        H  0.60682357  0.15541869  0.18204157     0.43340
C658        C  0.69958070  0.12516893  0.37867303    -0.05720
C659        C  0.65739229  0.12925907  0.37248521    -0.33150
C660        C  0.63898870  0.12371608  0.34445385     0.36100
C661        C  0.66254670  0.11311368  0.32180509    -0.06080
C662        C  0.70825635  0.11490684  0.32728852    -0.33050
C663        C  0.72704616  0.12108955  0.35563890     0.36010
H664        H  0.63701289  0.13470752  0.38972342     0.16380
O665        O  0.59534894  0.12440886  0.33994462    -0.60550
H666        H  0.72683317  0.10696977  0.31008492     0.16390
O667        O  0.77049314  0.12046017  0.36055596    -0.60640
H668        H  0.79802553  0.15642929  0.36035724     0.43390
H669        H  0.56751207  0.09139212  0.34706889     0.43340
C670        C  0.46847529  0.07653273  0.16724317    -0.05720
C671        C  0.42503694  0.08017282  0.16966768    -0.33150
C672        C  0.40395486  0.08922464  0.14496577     0.36100
C673        C  0.42601884  0.09363046  0.11770457    -0.06080
C674        C  0.46765481  0.08792490  0.11532527    -0.33050
C675        C  0.48937803  0.08035605  0.13939090     0.36010
H676        H  0.40768558  0.07623300  0.19055568     0.16380
O677        O  0.36419232  0.09674402  0.14794067    -0.60550
H678        H  0.48535477  0.09182815  0.09450007     0.16390
O679        O  0.53206506  0.07789670  0.13513644    -0.60640
H680        H  0.51965975  0.04288598  0.12852091     0.43390
H681        H  0.33348726  0.06273660  0.14595165     0.43340
C682        C  0.43081870  0.11137783  0.36981959    -0.05720
C683        C  0.47304493  0.14662469  0.35366887    -0.33150
C684        C  0.48090380  0.13600522  0.32541795     0.36100
C685        C  0.44645171  0.08927165  0.31255645    -0.06080
C686        C  0.40197562  0.05594124  0.32778723    -0.33050
C687        C  0.39436083  0.06632794  0.35628189     0.36010
H688        H  0.50083018  0.18249359  0.36306433     0.16380
O689        O  0.52371082  0.17080608  0.31107714    -0.60550
H690        H  0.37446533  0.02025428  0.31828864     0.16390
O691        O  0.35248873  0.03107341  0.37113813    -0.60640
H692        H  0.36314566  0.00963405  0.38111466     0.43390
H693        H  0.51323697  0.19081679  0.29940343     0.43340
O694        O  0.46184318  0.99263868  0.81405103    -0.80390
O695        O  0.55226994  0.99484918  0.69988070    -0.80420
O696        O  0.39033768  0.96260420  0.72816870    -0.80420
O697        O  0.54062908  0.94245194  0.79114533    -0.80370
O698        O  0.45706084  0.96237427  0.71053894    -0.80490
O699        O  0.55235397  0.00288030  0.82151450    -0.80410
O700        O  0.54402782  0.93782740  0.73039314    -0.80390
O701        O  0.42494913  0.93778713  0.77795734    -0.80430
C702        C  0.42742653  0.94965920  0.80460313     1.09300
C703        C  0.55076987  0.95427650  0.70468590     1.09180
C704        C  0.41081172  0.95187495  0.70771467     1.09320
C705        C  0.54870508  0.96059429  0.81635676     1.09200
O706        O  0.59935039  0.09577020  0.78755014    -0.80390
O707        O  0.52209948  0.05186341  0.68611580    -0.80470
O708        O  0.42994788  0.02947457  0.77486550    -0.80410
O709        O  0.62630057  0.04154052  0.73168053    -0.80390
O710        O  0.59325554  0.08906011  0.72696763    -0.80440
O711        O  0.50737897  0.08743121  0.78205483    -0.80400
O712        O  0.62706572  0.04381478  0.78968628    -0.80360
O713        O  0.47048137  0.05297052  0.71810446    -0.80430
Co714      Co  0.53066883  0.04475587  0.79932392     1.51530
Co715      Co  0.52486403  0.02896655  0.72187409     1.51690
Co716      Co  0.45274826  0.99312001  0.74858653     1.51570
Co717      Co  0.57956209  0.99134274  0.76081078     1.51470
O718        O  0.52391237  0.01064175  0.76166856    -1.42330
C719        C  0.63179049  0.08590952  0.79635691     1.09220
C720        C  0.48844069  0.06127001  0.69188574     1.09310
C721        C  0.46132233  0.07071252  0.78688687     1.09250
C722        C  0.62809239  0.08025802  0.72098078     1.09230
O723        O  0.02410849  0.55209242  0.82142717    -0.80390
O724        O  0.94656712  0.42459270  0.72301118    -0.80420
O725        O  0.93441707  0.52274288  0.73650152    -0.80420
O726        O  0.95185233  0.41711123  0.78627432    -0.80370
O727        O  0.97479097  0.51736862  0.70000060    -0.80490
O728        O  0.01415456  0.46179861  0.81761644    -0.80410
O729        O  0.96852827  0.37152831  0.73862692    -0.80390
O730        O  0.95746107  0.53721288  0.79541217    -0.80430
C731        C  0.98083661  0.54731059  0.81941100     1.09300
C732        C  0.94362529  0.38159942  0.72071240     1.09180
C733        C  0.94079357  0.52399514  0.70958377     1.09320
C734        C  0.97009232  0.42484834  0.81175782     1.09200
O735        O  0.10161121  0.50240586  0.78016880    -0.80390
O736        O  0.07605841  0.55901094  0.71383806    -0.80470
O737        O  0.05410029  0.61986820  0.78242818    -0.80410
O738        O  0.05521217  0.45426011  0.72175447    -0.80390
O739        O  0.02026135  0.46997954  0.68500554    -0.80440
O740        O  0.10864381  0.59535260  0.78266502    -0.80400
O741        O  0.04475785  0.42364398  0.77938462    -0.80360
O742        O  0.03847863  0.60140654  0.72436601    -0.80430
Co743      Co  0.06138834  0.52767427  0.79809068     1.51530
Co744      Co  0.01409954  0.49289738  0.72098818     1.51690
Co745      Co  0.99678360  0.56560625  0.75965945     1.51570
Co746      Co  0.00103138  0.43900552  0.75403329     1.51470
O747        O  0.01774901  0.51169513  0.76230458    -1.42330
C748        C  0.08728860  0.45820509  0.78853981     1.09220
C749        C  0.06987566  0.59599228  0.70936928     1.09310
C750        C  0.09680826  0.62723051  0.78992363     1.09250
C751        C  0.05025525  0.45701577  0.69414655     1.09230
O752        O  0.51094490  0.41550803  0.78397336    -0.80390
O753        O  0.58788303  0.48999373  0.72521668    -0.80420
O754        O  0.46207689  0.40081640  0.72326801    -0.80420
O755        O  0.62688955  0.58608211  0.78368701    -0.80370
O756        O  0.51088306  0.44240805  0.68617671    -0.80490
O757        O  0.60462914  0.50708351  0.78792674    -0.80410
O758        O  0.62087051  0.57235457  0.72595789    -0.80390
O759        O  0.43216212  0.39345000  0.77718800    -0.80430
C760        C  0.46424805  0.38440158  0.78832642     1.09300
C761        C  0.62275401  0.53404189  0.71783816     1.09180
C762        C  0.47815178  0.40127647  0.69742342     1.09320
C763        C  0.63484298  0.55290997  0.79414256     1.09200
O764        O  0.55317673  0.55097949  0.81703646    -0.80390
O765        O  0.45208282  0.47596029  0.70801300    -0.80470
O766        O  0.42600649  0.48029380  0.77919627    -0.80410
O767        O  0.53516446  0.58672095  0.72383223    -0.80390
O768        O  0.54598050  0.53826634  0.69426862    -0.80440
O769        O  0.46663528  0.46417233  0.81323172    -0.80400
O770        O  0.54062637  0.59535012  0.78363226    -0.80360
O771        O  0.38504130  0.41500815  0.73092771    -0.80430
Co772      Co  0.53425200  0.48451405  0.79819655     1.51530
Co773      Co  0.51949581  0.47910925  0.71989190     1.51690
Co774      Co  0.44993177  0.45001344  0.74967859     1.51570
Co775      Co  0.57639901  0.58034260  0.75431195     1.51470
O776        O  0.52310662  0.50444100  0.75907871    -1.42330
C777        C  0.54712534  0.58739371  0.80965819     1.09220
C778        C  0.40460571  0.44123316  0.70808654     1.09310
C779        C  0.43139400  0.47145669  0.80560603     1.09250
C780        C  0.54221441  0.57620448  0.69868019     1.09230
C781        C  0.90148856  0.59155484  0.91896128     0.42200
N782        N  0.84055310  0.57019892  0.94804445     0.01090
C783        C  0.78285706  0.71422504  0.53490432    -0.06780
H784        H  0.96079204  0.71388961  0.55845831     0.06580
C785        C  0.83818824  0.52955304  0.58603983    -0.07140
Co786      Co  0.83808952  0.65784145  0.97213684     0.74180
N787        N  0.90187856  0.68890284  0.52606388    -0.26310
Co788      Co  0.83152202  0.64768798  0.54800694     0.74070
C789        C  0.87251707  0.56910426  0.60563783     0.42300
N790        N  0.79259825  0.48161253  0.51732637     0.00710
N791        N  0.85351681  0.60231899  0.57037549     0.00810
N792        N  0.78716473  0.71877345  0.98617939    -0.47160
H793        H  0.93204645  0.67633271  0.92576347     0.06570
N794        N  0.90376499  0.69315790  0.99755666     0.01100
N795        N  0.76165307  0.60338657  0.56915241     0.00840
C796        C  0.70892389  0.57102840  0.60461611     0.42440
N797        N  0.79567949  0.48549755  0.98906625    -0.25770
C798        C  0.75868037  0.63624961  0.92333144    -0.06690
N799        N  0.85984611  0.55180829  0.93000990    -0.46880
N800        N  0.74751503  0.61484820  0.59364520    -0.47100
C801        C  0.72074376  0.59039468  0.90805746     0.42220
N802        N  0.80748171  0.69305724  0.99657227     0.01090
N803        N  0.70131482  0.48512142  0.98692103    -0.25790
N804        N  0.86623682  0.61998632  0.94900775    -0.26280
N805        N  0.69803416  0.48186490  0.51525854     0.00730
H806        H  0.64751991  0.44552457  0.95266625     0.06620
H807        H  0.67970854  0.49083188  0.58766147     0.06650
N808        N  0.80530163  0.68952596  0.52512432    -0.26330
N809        N  0.82712388  0.55309051  0.56588807    -0.25950
N810        N  0.74729206  0.56965246  0.94542579     0.01090
C811        C  0.98219516  0.73086551  0.51026775     0.42490
C812        C  0.81199214  0.45583153  0.97903628    -0.07200
N813        N  0.73569399  0.55424003  0.56434946    -0.25940
H814        H  0.81850526  0.48906638  0.58857545     0.06640
N815        N  0.95072025  0.71748270  0.98734057    -0.47170
H816        H  0.81571378  0.44919460  0.95649909     0.06620
C817        C  0.62291723  0.42938169  0.50030315     0.42320
C818        C  0.90583186  0.63718024  0.93106309    -0.06690
Co819      Co  0.77109937  0.52752988  0.96729660     0.73820
N820        N  0.80514880  0.44959943  0.52766537    -0.46880
C821        C  0.77083736  0.73359091  0.50901283     0.42590
N822        N  0.71613254  0.55118168  0.92321615    -0.46870
Co823      Co  0.76317886  0.51762711  0.54050044     0.73890
C824        C  0.70066317  0.53125280  0.58461155    -0.07200
C825        C  0.94985767  0.71201744  0.53605135    -0.06760
N826        N  0.77323901  0.61948767  0.94607659    -0.26290
N827        N  0.88069126  0.61352843  0.59458923    -0.47050
H828        H  0.77477773  0.71716924  0.55728837     0.06600
C829        C  0.65567620  0.45349337  0.97544171    -0.07180
Cl830      Cl  0.80086299  0.58780708  0.50705435    -0.50180
C831        C  0.81851294  0.43231356  0.50472948     0.42350
H832        H  0.77773110  0.67504309  0.91609371     0.06560
N833        N  0.65191876  0.44838080  0.52421965    -0.46890
C834        C  0.71526193  0.13025551  0.90918515     0.42200
N835        N  0.74222890  0.17403674  0.94793604     0.01090
C836        C  0.94695153  0.22846635  0.53382172    -0.06780
H837        H  0.77317251  0.05103674  0.55721709     0.06580
C838        C  0.70399055  0.16616055  0.58757317    -0.07140
Co839      Co  0.83284662  0.17596134  0.97158042     0.74180
N840        N  0.80046052  0.10972950  0.52470859    -0.26310
Co841      Co  0.83026011  0.17880625  0.54752520     0.74070
C842        C  0.71060343  0.13214935  0.60625288     0.42300
N843        N  0.69991126  0.21553897  0.51894890     0.00710
N844        N  0.76204855  0.15411436  0.57015795     0.00810
N845        N  0.94575304  0.22536270  0.98498855    -0.47160
H846        H  0.77092309  0.10201828  0.91468373     0.06570
N847        N  0.80134915  0.10843229  0.99612124     0.01100
N848        N  0.85719977  0.24732601  0.56990191     0.00840
C849        C  0.88304193  0.29971470  0.60574883     0.42440
N850        N  0.70185755  0.21436032  0.99060293    -0.25770
C851        C  0.89620309  0.26304498  0.92658406    -0.06690
N852        N  0.71092651  0.16292367  0.92607544    -0.46880
N853        N  0.88682277  0.26218943  0.59318320    -0.47100
C854        C  0.89009104  0.30321407  0.91372732     0.42220
N855        N  0.89944748  0.20535782  0.99577579     0.01090
N856        N  0.79798253  0.30901364  0.99091065    -0.25790
N857        N  0.76734052  0.15016165  0.94694131    -0.26280
N858        N  0.79706294  0.31093858  0.51924303     0.00730
H859        H  0.81349337  0.36351572  0.95741314     0.06620
H860        H  0.82984876  0.32784432  0.59249020     0.06650
N861        N  0.89886148  0.20675919  0.52434678    -0.26330
N862        N  0.73817181  0.17901150  0.56678776    -0.25950
N863        N  0.83707612  0.26788456  0.94814680     0.01090
C864        C  0.76629784  0.03004363  0.50895391     0.42490
C865        C  0.65630190  0.20021727  0.97953633    -0.07200
N866        N  0.83278942  0.27182321  0.56716480    -0.25940
H867        H  0.68375890  0.18544728  0.59157068     0.06640
N868        N  0.78127076  0.06166053  0.98593301    -0.47170
H869        H  0.64758090  0.19931289  0.95680342     0.06620
C870        C  0.82019624  0.38591730  0.50524483     0.42320
C871        C  0.75255604  0.12103144  0.92313239    -0.06690
Co872      Co  0.76981046  0.24114923  0.96953175     0.73820
N873        N  0.65452566  0.20382041  0.52828486    -0.46880
C874        C  0.97793088  0.24073391  0.50766012     0.42590
N875        N  0.85273459  0.30336545  0.92828672    -0.46870
Co876      Co  0.76686588  0.24443530  0.54298185     0.73890
C877        C  0.84776317  0.30644893  0.58799883    -0.07200
C878        C  0.77902289  0.06200505  0.53470508    -0.06760
N879        N  0.86132604  0.24311568  0.94769442    -0.26290
N880        N  0.74733682  0.12640667  0.59411386    -0.47050
H881        H  0.95883931  0.23536914  0.55620149     0.06600
C882        C  0.81278941  0.35469515  0.98009800    -0.07180
Cl883      Cl  0.79996463  0.20994098  0.50798748    -0.50180
C884        C  0.62489577  0.19303677  0.50452148     0.42350
H885        H  0.91846094  0.24747444  0.91913380     0.06560
N886        N  0.80905538  0.35614846  0.52881749    -0.46890
C887        C  0.30570811  0.87072516  0.90634140     0.42200
N888        N  0.27422100  0.82319325  0.94376699     0.01090
C889        C  0.07297247  0.77204177  0.53316470    -0.06780
H890        H  0.24373392  0.95090558  0.54920319     0.06580
C891        C  0.32008747  0.84679825  0.58120428    -0.07140
Co892      Co  0.18208573  0.81991117  0.96708590     0.74180
N893        N  0.21522053  0.88974377  0.51833609    -0.26310
Co894      Co  0.18847619  0.82353101  0.54303787     0.74070
C895        C  0.31702897  0.88675534  0.59566608     0.42300
N896        N  0.31819298  0.78740138  0.51765865     0.00710
N897        N  0.25766489  0.85197127  0.56414173     0.00810
N898        N  0.06717839  0.76890090  0.98438822    -0.47160
H899        H  0.24902896  0.89824397  0.91040288     0.06570
N900        N  0.21286414  0.88861190  0.98976506     0.01100
N901        N  0.16368150  0.75734522  0.56729513     0.00840
C902        C  0.13453415  0.70277208  0.60137545     0.42440
N903        N  0.31706040  0.78699978  0.98924301    -0.25770
C904        C  0.12680220  0.73747422  0.91998989    -0.06690
N905        N  0.30815001  0.83653314  0.92313471    -0.46880
N906        N  0.13228580  0.74166701  0.58964594    -0.47100
C907        C  0.13737373  0.70131632  0.90586301     0.42220
N908        N  0.11526230  0.79029563  0.99298968     0.01090
N909        N  0.22172895  0.69096487  0.99034899    -0.25790
N910        N  0.24835150  0.84633926  0.94199186    -0.26280
N911        N  0.22359447  0.69048405  0.51877973     0.00730
H912        H  0.20758313  0.63575617  0.95774367     0.06620
H913        H  0.18714610  0.67370876  0.59023973     0.06650
N914        N  0.11920723  0.79247145  0.52153412    -0.26330
N915        N  0.28141352  0.82677293  0.56271717    -0.25950
N916        N  0.18047299  0.72832757  0.94526015     0.01090
C917        C  0.24773553  0.96748372  0.50042328     0.42490
C918        C  0.36363014  0.80193854  0.97957494    -0.07200
N919        N  0.18752962  0.73227518  0.56497845    -0.25940
H920        H  0.34316504  0.83089265  0.58649120     0.06640
N921        N  0.23211460  0.93432438  0.97822209    -0.47170
H922        H  0.37379967  0.80209624  0.95722161     0.06620
C923        C  0.20326817  0.61552904  0.50590026     0.42320
C924        C  0.26573844  0.87756645  0.91889723    -0.06690
Co925      Co  0.24833066  0.75745653  0.96729764     0.73820
N926        N  0.36322358  0.80107701  0.52840825    -0.46880
C927        C  0.03838857  0.75643978  0.50871533     0.42590
N928        N  0.17040632  0.69774320  0.92315575    -0.46870
Co929      Co  0.25254558  0.75885672  0.54109555     0.73890
C930        C  0.17079985  0.69644316  0.58514201    -0.07200
C931        C  0.23658483  0.93802481  0.52702674    -0.06760
N932        N  0.15567436  0.75259928  0.94401301    -0.26290
N933        N  0.27686033  0.88739013  0.58440162    -0.47050
H934        H  0.06471242  0.76864097  0.55602603     0.06600
C935        C  0.20834786  0.64525010  0.98029253    -0.07180
Cl936      Cl  0.21761885  0.78983365  0.50457353    -0.50180
C937        C  0.39412715  0.81145703  0.50570583     0.42350
H938        H  0.10847108  0.75627462  0.91100679     0.06560
N939        N  0.21402783  0.64621940  0.52906451    -0.46890
C940        C  0.44135343  0.81141462  0.50775434     0.42200
N941        N  0.49282762  0.78792634  0.99584036     0.01090
C942        C  0.63910531  0.73485119  0.58460749    -0.06780
H943        H  0.68078720  0.90988329  0.59656576     0.06580
C944        C  0.72464308  0.94189118  0.98153206    -0.07140
Co945      Co  0.53376223  0.75985547  0.54549517     0.74180
N946        N  0.62568275  0.85177119  0.56823296    -0.26310
Co947      Co  0.66550886  0.82679584  0.54372823     0.74070
C948        C  0.74140294  0.97380401  0.50738014     0.42300
N949        N  0.61785713  0.85015148  0.94702206     0.00710
N950        N  0.70289053  0.89504441  0.51989399     0.00810
N951        N  0.55390414  0.69377909  0.58234652    -0.47160
H952        H  0.45257771  0.80276623  0.55629752     0.06570
N953        N  0.57565485  0.82613349  0.56827827     0.01100
N954        N  0.70283014  0.79823151  0.51937359     0.00840
C955        C  0.74350683  0.76159606  0.50706737     0.42440
N956        N  0.56828932  0.82492941  0.95013163    -0.25770
C957        C  0.46138645  0.64466082  0.53196052    -0.06690
N958        N  0.46160682  0.80113658  0.98506737    -0.46880
N959        N  0.72774727  0.77711363  0.52988854    -0.47100
C960        C  0.44089313  0.61535790  0.50535734     0.42220
N961        N  0.57468182  0.73327929  0.56528853     0.01090
N962        N  0.56636800  0.73278867  0.94955257    -0.25790
N963        N  0.49360461  0.78762993  0.52422270    -0.26280
N964        N  0.61577816  0.75610560  0.94616515     0.00730
H965        H  0.50289697  0.67533121  0.92696593     0.06620
H966        H  0.72944882  0.76782295  0.95869575     0.06650
N967        N  0.62455996  0.75841077  0.56601993    -0.26330
N968        N  0.70109536  0.89395576  0.99133415    -0.25950
N969        N  0.49108216  0.69282644  0.99465896     0.01090
C970        C  0.59564858  0.87816007  0.60301901     0.42490
C971        C  0.54727543  0.84055910  0.93106654    -0.07200
N972        N  0.70064516  0.79718725  0.99086474    -0.25940
H973        H  0.72763090  0.95299720  0.95911075     0.06640
N974        N  0.55635756  0.84032999  0.58894564    -0.47170
H975        H  0.50713810  0.82299031  0.92699704     0.06620
C976        C  0.58334804  0.69746709  0.91399163     0.42320
C977        C  0.46225865  0.80223685  0.53392067    -0.06690
Co978      Co  0.52966155  0.75977528  0.97263321     0.73820
N979        N  0.63240436  0.88232213  0.92516943    -0.46880
C980        C  0.59153059  0.69172924  0.59547567     0.42590
N981        N  0.46048356  0.64793402  0.98316997    -0.46870
Co982      Co  0.66051940  0.82504708  0.96835139     0.73890
C983        C  0.72554644  0.77495413  0.98111959    -0.07200
C984        C  0.64196484  0.88621585  0.58954738    -0.06760
N985        N  0.49209295  0.69229317  0.52298477    -0.26290
N986        N  0.72631618  0.94192981  0.53031707    -0.47050
H987        H  0.67781321  0.74819121  0.59071185     0.06600
C988        C  0.54321306  0.69553817  0.93080007    -0.07180
Cl989      Cl  0.59758268  0.79311665  0.50756789    -0.50180
C990        C  0.58938117  0.87764412  0.91447125     0.42350
H991        H  0.45261027  0.63254854  0.55421246     0.06560
N992        N  0.62781854  0.73686309  0.92407165    -0.46890
C993        C  0.13199011  0.41909889  0.90446102     0.42200
N994        N  0.17906709  0.43475125  0.94230360     0.01090
C995        C  0.23077063  0.27863464  0.52397577    -0.06780
H996        H  0.06036588  0.27910577  0.55307388     0.06580
C997        C  0.17423545  0.45774322  0.58079251    -0.07140
Co998      Co  0.17725041  0.34256328  0.96399942     0.74180
N999        N  0.11486353  0.30696290  0.51850251    -0.26310
Co1000     Co  0.18389098  0.34403498  0.54027013     0.74070
C1001       C  0.13353654  0.41580438  0.59599729     0.42300
N1002       N  0.22697849  0.51547456  0.51678246     0.00710
N1003       N  0.16173215  0.38696587  0.56407658     0.00810
N1004       N  0.22678105  0.27849363  0.97516251    -0.47160
H1005       H  0.10033880  0.33360271  0.90898340     0.06360
N1006       N  0.11076311  0.30577506  0.98998081     0.01100
N1007       N  0.25288572  0.38364227  0.56244479     0.00840
C1008       C  0.30856269  0.40691356  0.59617551     0.42440
N1009       N  0.22375703  0.51357199  0.98837469    -0.25770
C1010       C  0.26011973  0.36890754  0.91592842    -0.06690
N1011       N  0.16798846  0.45607081  0.92103661    -0.46880
N1012       N  0.26786054  0.36629198  0.58421233    -0.47100
C1013       C  0.30163073  0.41657359  0.90429967     0.42220
N1014       N  0.20649604  0.30342040  0.98669329     0.01090
N1015       N  0.31715640  0.51205131  0.98640231    -0.25790
N1016       N  0.15264682  0.38487368  0.94097856    -0.26280
N1017       N  0.31904661  0.51118682  0.51481344     0.00730
H1018       H  0.37330244  0.55735841  0.95446925     0.06620
H1019       H  0.34027771  0.49062611  0.58652630     0.06650
N1020       N  0.20877087  0.30430234  0.51530858    -0.26330
N1021       N  0.18925247  0.43654727  0.56179676    -0.25950
N1022       N  0.27071130  0.43258775  0.94096913     0.01090
C1023       C  0.03390305  0.26650582  0.50582959     0.42490
C1024       C  0.20937007  0.54526297  0.97917376    -0.07200
N1025       N  0.27965518  0.43341710  0.56074995    -0.25940
H1026       H  0.19353991  0.49775277  0.58532542     0.06640
N1027       N  0.06252623  0.28187646  0.98144894    -0.47170
H1028       H  0.20659189  0.55377221  0.95680275     0.06620
C1029       C  0.39474671  0.56590495  0.50279802     0.42320
C1030       C  0.12167250  0.37137593  0.91777290    -0.06690
Co1031     Co  0.24765201  0.47324066  0.96460311     0.73820
N1032       N  0.21674984  0.54880855  0.52790747    -0.46880
C1033       C  0.24274238  0.26155265  0.49742168     0.42590
N1034       N  0.30563522  0.45384495  0.92089472    -0.46870
Co1035     Co  0.25394478  0.47433808  0.53848129     0.73890
C1036       C  0.31625178  0.45128044  0.58074493    -0.07200
C1037       C  0.06857802  0.28313447  0.53020021    -0.06760
N1038       N  0.24330753  0.38279978  0.93891273    -0.26290
N1039       N  0.12796474  0.37247694  0.58522197    -0.47050
H1040       H  0.23877566  0.27382670  0.54613353     0.06600
C1041       C  0.36364501  0.54544915  0.97669571    -0.07180
Cl1042     Cl  0.21563460  0.40841784  0.50177545    -0.50180
C1043       C  0.20459254  0.56856914  0.50536263     0.42350
H1044       H  0.24282955  0.33119058  0.90711604     0.06560
N1045       N  0.36429771  0.54317067  0.52549668    -0.46890
C1046       C  0.57665570  0.19176951  0.50382489     0.42200
N1047       N  0.52263572  0.21056307  0.98841383     0.01090
C1048       C  0.37123890  0.24929049  0.58220371    -0.06780
H1049       H  0.33060796  0.08392181  0.58667979     0.06580
C1050       C  0.29053922  0.05417116  0.97149419    -0.07140
Co1051     Co  0.47700024  0.23638750  0.53670987     0.74180
N1052       N  0.38509414  0.14322861  0.55863961    -0.26310
Co1053     Co  0.34668169  0.16877960  0.53367283     0.74070
C1054       C  0.27261884  0.02313299  0.49767814     0.42300
N1055       N  0.39797565  0.14590490  0.93609514     0.00710
N1056       N  0.31087692  0.10180438  0.50940827     0.00810
N1057       N  0.45597420  0.29442682  0.57842860    -0.47160
H1058       H  0.55986366  0.19952399  0.55124846     0.06570
N1059       N  0.43499484  0.16897869  0.55839384     0.01100
N1060       N  0.31107326  0.19775876  0.50825289     0.00840
C1061       C  0.27032277  0.23398013  0.49518463     0.42440
N1062       N  0.44771501  0.17184275  0.93924721    -0.25770
C1063       C  0.55012450  0.35039940  0.52549821    -0.06690
N1064       N  0.55718582  0.20026634  0.97970883    -0.46880
N1065       N  0.28574013  0.21850509  0.51824928    -0.47100
C1066       C  0.57468489  0.38121540  0.50009807     0.42220
N1067       N  0.43556065  0.26217569  0.55701857     0.01090
N1068       N  0.44802157  0.26407806  0.93863595    -0.25790
N1069       N  0.51931862  0.21059994  0.51675665    -0.26280
N1070       N  0.39844602  0.23864721  0.93499622     0.00730
H1071       H  0.50996625  0.32166279  0.91472735     0.06620
H1072       H  0.28538058  0.22808361  0.94695435     0.06650
N1073       N  0.38573961  0.23500660  0.55834919    -0.26330
N1074       N  0.31395774  0.10232862  0.98087492    -0.25950
N1075       N  0.52257553  0.30511102  0.98670583     0.01090
C1076       C  0.41614796  0.11543771  0.59231795     0.42490
C1077       C  0.46852006  0.15850848  0.91851682    -0.07200
N1078       N  0.31387067  0.19876122  0.97967582    -0.25940
H1079       H  0.28810261  0.04243015  0.94925466     0.06640
N1080       N  0.45475686  0.15355752  0.57805146    -0.47170
H1081       H  0.50855805  0.17800299  0.91387810     0.06620
C1082       C  0.42830057  0.29040639  0.89914327     0.42320
C1083       C  0.55172306  0.19882159  0.52843990    -0.06690
Co1084     Co  0.48548272  0.23791995  0.96333293     0.73820
N1085       N  0.38377770  0.11649535  0.91280403    -0.46880
C1086       C  0.41866560  0.28850318  0.59573983     0.42590
N1087       N  0.55627134  0.35051776  0.97679954    -0.46870
Co1088     Co  0.35455458  0.17066585  0.95764157     0.73890
C1089       C  0.28900543  0.22097943  0.96946677    -0.07200
C1090       C  0.36929794  0.10827807  0.57977173    -0.06760
N1091       N  0.51890502  0.30403493  0.51504134    -0.26290
N1092       N  0.28686406  0.05536374  0.52022798    -0.47050
H1093       H  0.33362342  0.22929751  0.59129336     0.06600
C1094       C  0.46964402  0.29891177  0.91808946    -0.07180
Cl1095     Cl  0.41587039  0.20337282  0.49776576    -0.50180
C1096       C  0.42634327  0.12216735  0.90066577     0.42350
H1097       H  0.55768239  0.36023771  0.54813138     0.06560
N1098       N  0.38510148  0.25265245  0.91104771    -0.46890
C1099       C  0.45745563  0.35543897  0.67971873    -0.05720
C1100       C  0.49184652  0.34816593  0.66432914    -0.33150
C1101       C  0.47812510  0.32253023  0.63814261     0.36100
C1102       C  0.42928708  0.30485104  0.62636087    -0.06080
C1103       C  0.39266661  0.30561997  0.64381768    -0.33050
C1104       C  0.40635086  0.32978873  0.67084521     0.36010
H1105       H  0.53078729  0.36599331  0.67144780     0.16380
O1106       O  0.51416084  0.31807087  0.62351061    -0.60550
H1107       H  0.35440929  0.29024325  0.63588536     0.16390
O1108       O  0.37066121  0.33246271  0.68688834    -0.60640
H1109       H  0.36068718  0.30645863  0.70213209     0.43390
H1110       H  0.50828269  0.28443952  0.62899328     0.43340
C1111       C  0.44866869  0.34750823  0.81234280    -0.05720
C1112       C  0.48483011  0.33879724  0.82481302    -0.33150
C1113       C  0.47767395  0.31776625  0.85240513     0.36100
C1114       C  0.43372681  0.30551945  0.86833087    -0.06080
C1115       C  0.39499480  0.30864039  0.85457720    -0.33050
C1116       C  0.40196357  0.32923706  0.82672670     0.36010
H1117       H  0.52014427  0.35072186  0.81377372     0.16380
O1118       O  0.51350994  0.30844296  0.86320612    -0.60550
H1119       H  0.36011093  0.29736091  0.86594324     0.16390
O1120       O  0.36367939  0.33310831  0.81429674    -0.60640
H1121       H  0.35919032  0.35636613  0.82686228     0.43390
H1122       H  0.54428515  0.34209980  0.86631412     0.43340
C1123       C  0.69304032  0.56194851  0.63549144    -0.05720
C1124       C  0.66064120  0.51207329  0.64515863    -0.33150
C1125       C  0.64348603  0.50163528  0.67361534     0.36100
C1126       C  0.65625912  0.54142308  0.69301855    -0.06080
C1127       C  0.69211000  0.59100643  0.68421439    -0.33050
C1128       C  0.71057596  0.60137877  0.65582514     0.36010
H1129       H  0.64697157  0.48034187  0.63065364     0.16380
O1130       O  0.61076469  0.45244496  0.68135247    -0.60550
H1131       H  0.70338079  0.62241918  0.69882104     0.16390
O1132       O  0.74481690  0.65027802  0.64818538    -0.60640
H1133       H  0.72424408  0.66382745  0.64040535     0.43390
H1134       H  0.63243031  0.44052679  0.68964512     0.43340
C1135       C  0.70579589  0.58480503  0.87723365    -0.05720
C1136       C  0.69494454  0.54046460  0.86246241    -0.33150
C1137       C  0.67613299  0.53117502  0.83415318     0.36100
C1138       C  0.66839648  0.56678945  0.81986270    -0.06080
C1139       C  0.68365581  0.61303260  0.83381442    -0.33050
C1140       C  0.70141612  0.62189894  0.86234726     0.36010
H1141       H  0.69960831  0.51192008  0.87313871     0.16380
O1142       O  0.66432685  0.48669031  0.82096439    -0.60550
H1143       H  0.67856386  0.64123781  0.82331029     0.16390
O1144       O  0.71020916  0.66492423  0.87613674    -0.60640
H1145       H  0.74310490  0.69226623  0.86859110     0.43390
H1146       H  0.63168415  0.46069169  0.82952653     0.43340
C1147       C  0.55360219  0.61050917  0.67483437    -0.05720
C1148       C  0.60452408  0.64561342  0.66897403    -0.33150
C1149       C  0.61849516  0.67179484  0.64280897     0.36100
C1150       C  0.58105940  0.66200299  0.62208101    -0.06080
C1151       C  0.53009758  0.62578209  0.62808690    -0.33050
C1152       C  0.51630480  0.60041255  0.65432382     0.36010
H1153       H  0.63363586  0.65160474  0.68440302     0.16380
O1154       O  0.66855451  0.70594379  0.63771815    -0.60550
H1155       H  0.50048686  0.61711484  0.61243850     0.16390
O1156       O  0.46668215  0.56420051  0.65921593    -0.60640
H1157       H  0.45250194  0.58164748  0.67008010     0.43390
H1158       H  0.67568819  0.73723016  0.64778911     0.43340
C1159       C  0.55252026  0.62267969  0.83220710    -0.05720
C1160       C  0.51637667  0.60406634  0.85379403    -0.33150
C1161       C  0.52722494  0.62644929  0.88081267     0.36100
C1162       C  0.57404848  0.67144214  0.88597131    -0.06080
C1163       C  0.60874585  0.69322686  0.86322257    -0.33050
C1164       C  0.59833312  0.66874891  0.83621147     0.36010
H1165       H  0.48026502  0.57047716  0.85000359     0.16380
O1166       O  0.49207370  0.60264881  0.90220289    -0.60550
H1167       H  0.64373244  0.72888127  0.86641192     0.16390
O1168       O  0.63183417  0.68972510  0.81361388    -0.60640
H1169       H  0.66643333  0.70895082  0.82192346     0.43390
H1170       H  0.50145686  0.57994943  0.91182751     0.43340
C1171       C  0.37686299  0.43072389  0.68016004    -0.05720
C1172       C  0.40523800  0.44034479  0.65467010    -0.33150
C1173       C  0.38242308  0.42961505  0.62748648     0.36100
C1174       C  0.33018674  0.40895521  0.62498783    -0.06080
C1175       C  0.30103950  0.39841786  0.65023409    -0.33050
C1176       C  0.32409882  0.40905713  0.67779170     0.36010
H1177       H  0.44569039  0.45602078  0.65566355     0.16380
O1178       O  0.41157843  0.43912095  0.60330720    -0.60550
H1179       H  0.26077926  0.38370056  0.64852944     0.16390
O1180       O  0.29508945  0.39950693  0.70200283    -0.60640
H1181       H  0.29629750  0.43156312  0.70613172     0.43390
H1182       H  0.42610013  0.47550734  0.59914021     0.43340
C1183       C  0.33252619  0.42777908  0.87823415    -0.05720
C1184       C  0.31124424  0.41721367  0.85029463    -0.33150
C1185       C  0.34261041  0.43549147  0.82567304     0.36100
C1186       C  0.39564200  0.46360295  0.82912440    -0.06080
C1187       C  0.41579414  0.47359784  0.85733361    -0.33050
C1188       C  0.38504210  0.45725992  0.88147856     0.36010
H1189       H  0.27053592  0.39552863  0.84761535     0.16380
O1190       O  0.32137376  0.42195908  0.79867176    -0.60550
H1191       H  0.45619900  0.49214749  0.86092407     0.16390
O1192       O  0.40689961  0.46997390  0.90841676    -0.60640
H1193       H  0.41261133  0.44230110  0.91391115     0.43390
H1194       H  0.31599876  0.44958406  0.79256523     0.43340
C1195       C  0.88421675  0.56092346  0.63565902    -0.05720
C1196       C  0.92874756  0.59802703  0.64894068    -0.33150
C1197       C  0.94435880  0.58839280  0.67536388     0.36100
C1198       C  0.91583561  0.54066303  0.68884168    -0.06080
C1199       C  0.86886282  0.50547965  0.67716546    -0.33050
C1200       C  0.85261413  0.51532991  0.65091024     0.36010
H1201       H  0.95281906  0.63377372  0.63818101     0.16380
O1202       O  0.98914603  0.62525498  0.68699895    -0.60550
H1203       H  0.84581811  0.46921004  0.68757080     0.16390
O1204       O  0.80550518  0.48036249  0.64067030    -0.60640
H1205       H  0.80734637  0.45018281  0.63565339     0.43390
H1206       H  0.97979627  0.64352600  0.70080284     0.43340
C1207       C  0.96069277  0.55920891  0.84508958    -0.05720
C1208       C  0.91421237  0.55702826  0.84331438    -0.33150
C1209       C  0.89568297  0.57017801  0.86704878     0.36100
C1210       C  0.92428428  0.58692101  0.89266583    -0.06080
C1211       C  0.97095572  0.59034051  0.89447399    -0.33050
C1212       C  0.98909593  0.57605819  0.87112586     0.36010
H1213       H  0.89191081  0.54472122  0.82363967     0.16380
O1214       O  0.84953894  0.56652358  0.86511875    -0.60550
H1215       H  0.99240609  0.60202795  0.91448003     0.16390
O1216       O  0.03457614  0.57866149  0.87420413    -0.60640
H1217       H  0.02612155  0.54540752  0.88216215     0.43390
H1218       H  0.82425076  0.53066743  0.86935066     0.43340
C1219       C  0.89557190  0.31567325  0.63657703    -0.05720
C1220       C  0.87032933  0.33651333  0.65085025    -0.33150
C1221       C  0.88249364  0.35411808  0.67928241     0.36100
C1222       C  0.91984714  0.35037364  0.69455700    -0.06080
C1223       C  0.94268517  0.32637967  0.68115171    -0.33050
C1224       C  0.93146771  0.30985739  0.65230102     0.36010
H1225       H  0.84143473  0.34033253  0.64000873     0.16380
O1226       O  0.85816927  0.37586208  0.69181691    -0.60550
H1227       H  0.97182036  0.32348565  0.69240901     0.16390
O1228       O  0.95713254  0.28979150  0.63946889    -0.60640
H1229       H  0.98789448  0.31907971  0.63113842     0.43390
H1230       H  0.87432892  0.41025923  0.68343923     0.43340
C1231       C  0.94458662  0.38758076  0.83482951    -0.05720
C1232       C  0.97137944  0.36762362  0.84820238    -0.33150
C1233       C  0.95363146  0.33867877  0.87334756     0.36100
C1234       C  0.90842354  0.32982706  0.88580742    -0.06080
C1235       C  0.88056457  0.34845265  0.87177469    -0.33050
C1236       C  0.89842251  0.37719547  0.84644232     0.36010
H1237       H  0.00718584  0.37590599  0.83953318     0.16380
O1238       O  0.98255910  0.32246103  0.88655941    -0.60550
H1239       H  0.84529636  0.34173878  0.88078929     0.16390
O1240       O  0.87181544  0.39681981  0.83406823    -0.60640
H1241       H  0.88542078  0.43045871  0.84313456     0.43390
H1242       H  0.97743466  0.29329807  0.87490873     0.43340
C1243       C  0.07936873  0.44867325  0.67230395    -0.05720
C1244       C  0.09050531  0.47791157  0.64731702    -0.33150
C1245       C  0.10399148  0.46450550  0.62205020     0.36100
C1246       C  0.11041259  0.42278260  0.62169068    -0.06080
C1247       C  0.10254421  0.39465027  0.64710069    -0.33050
C1248       C  0.08635651  0.40715546  0.67256349     0.36010
H1249       H  0.08635444  0.51042680  0.64680709     0.16380
O1250       O  0.10851046  0.49116504  0.59728082    -0.60550
H1251       H  0.10938571  0.36365569  0.64727331     0.16390
O1252       O  0.07790076  0.37946836  0.69738204    -0.60640
H1253       H  0.05611347  0.34349643  0.69182020     0.43390
H1254       H  0.13717972  0.52602263  0.60074493     0.43340
C1255       C  0.12218802  0.42885973  0.87416062    -0.05720
C1256       C  0.10752926  0.39208918  0.85238460    -0.33150
C1257       C  0.09990164  0.40218592  0.82364070     0.36100
C1258       C  0.10721672  0.44978013  0.81611699    -0.06080
C1259       C  0.12395605  0.48701919  0.83769025    -0.33050
C1260       C  0.13104343  0.47690992  0.86629966     0.36010
H1261       H  0.10160030  0.35528023  0.85757717     0.16380
O1262       O  0.08435620  0.36500075  0.80317182    -0.60550
H1263       H  0.12861069  0.52347569  0.83284364     0.16390
O1264       O  0.14406152  0.51368832  0.88677864    -0.60640
H1265       H  0.18088149  0.53746698  0.88428207     0.43390
H1266       H  0.04764085  0.34198656  0.80653604     0.43340
C1267       C  0.11442001  0.67858567  0.62938850    -0.05720
C1268       C  0.08456868  0.62619948  0.62960458    -0.33150
C1269       C  0.07024381  0.59966684  0.65553205     0.36100
C1270       C  0.08847931  0.62509833  0.68215179    -0.06080
C1271       C  0.11748696  0.67815386  0.68209091    -0.33050
C1272       C  0.13085465  0.70501112  0.65578102     0.36010
H1273       H  0.07181885  0.60552213  0.60941657     0.16380
O1274       O  0.03653564  0.54882368  0.65452591    -0.60550
H1275       H  0.12997371  0.69858689  0.70232993     0.16390
O1276       O  0.16090522  0.75663570  0.65604297    -0.60640
H1277       H  0.19604303  0.76377366  0.65459387     0.43390
H1278       H  0.00460065  0.54476067  0.64680617     0.43340
C1279       C  0.13339153  0.68874737  0.87457121    -0.05720
C1280       C  0.10820993  0.70384940  0.85553278    -0.33150
C1281       C  0.10239270  0.69035045  0.82628439     0.36100
C1282       C  0.12076744  0.65996605  0.81558800    -0.06080
C1283       C  0.15013836  0.64915180  0.83399125    -0.33050
C1284       C  0.15642506  0.66304277  0.86312902     0.36010
H1285       H  0.09145793  0.72483610  0.86337170     0.16380
O1286       O  0.07499249  0.70362455  0.80892744    -0.60550
H1287       H  0.16475563  0.62597611  0.82652762     0.16390
O1288       O  0.18262542  0.64833086  0.88050072    -0.60640
H1289       H  0.21875343  0.67466033  0.87792921     0.43390
H1290       H  0.10056679  0.73430938  0.79852539     0.43340
C1291       C  0.38482696  0.93219959  0.67960253    -0.05720
C1292       C  0.33714999  0.92639876  0.67447707    -0.33150
C1293       C  0.31515029  0.91407583  0.64683662     0.36100
C1294       C  0.34093545  0.90738057  0.62388359    -0.06080
C1295       C  0.38867944  0.91404035  0.62888605    -0.33050
C1296       C  0.41046241  0.92582314  0.65625874     0.36010
H1297       H  0.31704788  0.93192140  0.69181676     0.16380
O1298       O  0.26767554  0.90646319  0.64288556    -0.60550
H1299       H  0.40914274  0.90922558  0.61144815     0.16390
O1300       O  0.45752007  0.93209358  0.65955496    -0.60640
H1301       H  0.45126823  0.89793221  0.66392797     0.43390
H1302       H  0.27319252  0.94026642  0.63826425     0.43340
C1303       C  0.38847165  0.91648468  0.82576882    -0.05720
C1304       C  0.34425634  0.91856837  0.82857956    -0.33150
C1305       C  0.31623465  0.90376692  0.85445478     0.36100
C1306       C  0.33231475  0.88630625  0.87798543    -0.06080
C1307       C  0.37426164  0.88064228  0.87403647    -0.33050
C1308       C  0.40193510  0.89543397  0.84836798     0.36010
H1309       H  0.33290685  0.93419655  0.81123563     0.16380
O1310       O  0.27422074  0.90778637  0.85658990    -0.60550
H1311       H  0.38684620  0.86597945  0.89131786     0.16390
O1312       O  0.44370884  0.89123467  0.84607144    -0.60640
H1313       H  0.43065246  0.85672686  0.83841768     0.43390
H1314       H  0.24560208  0.87447218  0.85038835     0.43340
C1315       C  0.58972532  0.89891127  0.63002720    -0.05720
C1316       C  0.57571098  0.87012898  0.65560143    -0.33150
C1317       C  0.56269440  0.88688487  0.68051498     0.36100
C1318       C  0.56286830  0.93243968  0.67963971    -0.06080
C1319       C  0.57723765  0.96072102  0.65366161    -0.33050
C1320       C  0.59069989  0.94443208  0.62925682     0.36010
H1321       H  0.57401286  0.83426385  0.65604213     0.16380
O1322       O  0.54980276  0.85853651  0.70526829    -0.60550
H1323       H  0.57804048  0.99606072  0.65191098     0.16390
O1324       O  0.60195811  0.97192693  0.60418433    -0.60640
H1325       H  0.63924564  0.99454622  0.60436443     0.43390
H1326       H  0.51267915  0.83521711  0.70395266     0.43340
C1327       C  0.56227540  0.93717081  0.83933498    -0.05720
C1328       C  0.53702461  0.88473726  0.84245202    -0.33150
C1329       C  0.54705972  0.86391815  0.86652287     0.36100
C1330       C  0.58433020  0.89606856  0.88667071    -0.06080
C1331       C  0.61329332  0.94750181  0.88165535    -0.33050
C1332       C  0.60249810  0.96794794  0.85809815     0.36010
H1333       H  0.50832492  0.86021846  0.82702507     0.16380
O1334       O  0.52091624  0.81245916  0.87009124    -0.60550
H1335       H  0.64307814  0.97216234  0.89657372     0.16390
O1336       O  0.63338289  0.01799671  0.85268559    -0.60640
H1337       H  0.66152228  0.01956828  0.84154767     0.43390
H1338       H  0.48568097  0.80290475  0.87460031     0.43340
C1339       C  0.69595871  0.12333983  0.63727839    -0.05720
C1340       C  0.67770303  0.15165460  0.65082605    -0.33150
C1341       C  0.65990128  0.14172039  0.67929292     0.36100
C1342       C  0.66053039  0.10322122  0.69510110    -0.06080
C1343       C  0.68297607  0.07801353  0.68237686    -0.33050
C1344       C  0.70022558  0.08757632  0.65379547     0.36010
H1345       H  0.67594239  0.18115753  0.63935773     0.16380
O1346       O  0.64077878  0.16902471  0.69113781    -0.60550
H1347       H  0.68396665  0.04794465  0.69381503     0.16390
O1348       O  0.71795946  0.05926626  0.64170494    -0.60640
H1349       H  0.75411430  0.07640386  0.64738534     0.43390
H1350       H  0.60699143  0.15552989  0.68211805     0.43340
C1351       C  0.69950268  0.12502441  0.87870307    -0.05720
C1352       C  0.65726715  0.12903187  0.87251642    -0.33150
C1353       C  0.63887216  0.12348831  0.84448272     0.36100
C1354       C  0.66248956  0.11297164  0.82182874    -0.06080
C1355       C  0.70822713  0.11482437  0.82731533    -0.33050
C1356       C  0.72700425  0.12100256  0.85566881     0.36010
H1357       H  0.63685736  0.13443234  0.88975634     0.16380
O1358       O  0.59519968  0.12411868  0.83997151    -0.60550
H1359       H  0.72684561  0.10694712  0.81010905     0.16390
O1360       O  0.77048948  0.12044597  0.86058730    -0.60640
H1361       H  0.79798496  0.15643022  0.86039310     0.43390
H1362       H  0.56739028  0.09109761  0.84710891     0.43340
C1363       C  0.46854740  0.07660447  0.66727675    -0.05720
C1364       C  0.42502635  0.08010704  0.66967922    -0.33150
C1365       C  0.40395480  0.08915879  0.64497152     0.36100
C1366       C  0.42610914  0.09369280  0.61772474    -0.06080
C1367       C  0.46784807  0.08814766  0.61536951    -0.33050
C1368       C  0.48957092  0.08060354  0.63944314     0.36010
H1369       H  0.40758895  0.07603788  0.69055285     0.16380
O1370       O  0.36409859  0.09653672  0.64792900    -0.60550
H1371       H  0.48562385  0.09215417  0.59455829     0.16390
O1372       O  0.53237137  0.07833498  0.63521750    -0.60640
H1373       H  0.52010945  0.04339616  0.62851909     0.43390
H1374       H  0.33345424  0.06249040  0.64592176     0.43340
C1375       C  0.43079916  0.11131743  0.86983031    -0.05720
C1376       C  0.47298741  0.14658455  0.85366177    -0.33150
C1377       C  0.48084910  0.13594608  0.82541534     0.36100
C1378       C  0.44643698  0.08917620  0.81257777    -0.06080
C1379       C  0.40199500  0.05581835  0.82782690    -0.33050
C1380       C  0.39438042  0.06622163  0.85631729     0.36010
H1381       H  0.50074061  0.18248316  0.86304111     0.16380
O1382       O  0.52361790  0.17076904  0.81105405    -0.60550
H1383       H  0.37451719  0.02010118  0.81834684     0.16390
O1384       O  0.35255395  0.03094088  0.87119525    -0.60640
H1385       H  0.36326930  0.00954283  0.88116502     0.43390
H1386       H  0.51308517  0.19072232  0.79937112     0.43340
loop_ 
_geom_bond_atom_site_label_1 
_geom_bond_atom_site_label_2 
_geom_bond_distance 
_geom_bond_site_symmetry_2 
_ccdc_geom_bond_type 
O1            C9   1.276       .  A
O1          Co21   2.012   1_565  S
O2           C10   1.251       .  A
O2          Co22   1.950   1_565  S
O3           C11   1.277       .  A
O3          Co23   1.899       .  S
O4           C12   1.263       .  A
O4          Co24   1.957       .  S
O5           C11   1.297       .  A
O5          Co22   2.108   1_565  S
O6           C12   1.277   1_545  A
O6          Co21   2.016       .  S
O7           C10   1.268       .  A
O7          Co24   2.012       .  S
O8            C9   1.278       .  A
O8          Co23   1.999       .  S
C9          C610   1.480       .  S
C10         C625   1.486       .  S
C11         C598   1.482       .  S
C12         C634   1.462       .  S
O13          C26   1.255       .  A
O13         Co21   1.958       .  S
O14          C27   1.246       .  A
O14         Co22   1.818       .  S
O15          C28   1.264       .  A
O15         Co23   2.018   1_545  S
O16          C29   1.270       .  A
O16         Co24   2.001   1_545  S
O17          C29   1.270       .  A
O17         Co22   1.978       .  S
O18          C28   1.258       .  A
O18         Co21   1.967       .  S
O19          C26   1.272       .  A
O19         Co24   2.026   1_545  S
O20          C27   1.305       .  A
O20         Co23   2.160   1_545  S
Co21         O25   1.993       .  S
Co22         O25   1.922       .  S
Co23         O25   2.061   1_565  S
Co24         O25   2.091   1_565  S
C26         C661   1.471       .  S
C27         C670   1.481       .  S
C28         C685   1.494       .  S
C29         C649   1.488       .  S
O30          C38   1.269   1_455  A
O30         Co50   1.994       .  S
O31          C39   1.290       .  A
O31         Co51   2.066   1_655  S
O32          C40   1.259       .  A
O32         Co52   1.991       .  S
O33          C41   1.273       .  A
O33         Co53   1.986   1_655  S
O34          C40   1.252       .  A
O34         Co51   1.981   1_655  S
O35          C41   1.274   1_455  A
O35         Co50   2.007       .  S
O36          C39   1.272       .  A
O36         Co53   1.926   1_655  S
O37          C38   1.270       .  A
O37         Co52   1.973       .  S
C38         C514   1.476       .  S
C39         C529   1.484       .  S
C40         C505   1.478       .  S
C41         C538   1.467       .  S
O42          C55   1.261       .  A
O42         Co50   1.964       .  S
O43          C56   1.270       .  A
O43         Co51   1.978       .  S
O44          C57   1.264       .  A
O44         Co52   1.996   1_455  S
O45          C58   1.294       .  A
O45         Co53   2.111       .  S
O46          C58   1.256       .  A
O46         Co51   1.860       .  S
O47          C57   1.263       .  A
O47         Co50   1.967       .  S
O48          C55   1.262       .  A
O48         Co53   2.018       .  S
O49          C56   1.274       .  A
O49         Co52   2.022   1_455  S
Co50         O54   2.025       .  S
Co51         O54   1.986       .  S
Co52         O54   2.081   1_655  S
Co53         O54   2.067       .  S
C55         C565   1.494       .  S
C56         C577   1.481       .  S
C57         C589   1.486       .  S
C58         C550   1.465       .  S
O59          C67   1.270       .  A
O59         Co79   1.981       .  S
O60          C68   1.272       .  A
O60         Co80   1.974       .  S
O61          C69   1.294       .  A
O61         Co81   2.134       .  S
O62          C70   1.267       .  A
O62         Co82   2.002       .  S
O63          C69   1.259       .  A
O63         Co80   1.867       .  S
O64          C70   1.263       .  A
O64         Co79   1.969       .  S
O65          C68   1.274       .  A
O65         Co82   2.009       .  S
O66          C67   1.268       .  A
O66         Co81   1.997       .  S
C67         C418   1.483       .  S
C68         C433   1.486       .  S
C69         C406   1.468       .  S
C70         C445   1.486       .  S
O71          C84   1.279       .  A
O71         Co79   2.023       .  S
O72          C85   1.295       .  A
O72         Co80   2.104       .  S
O73          C86   1.281       .  A
O73         Co81   2.005       .  S
O74          C87   1.259       .  A
O74         Co82   1.973       .  S
O75          C87   1.255       .  A
O75         Co80   1.969       .  S
O76          C86   1.269       .  A
O76         Co79   1.973       .  S
O77          C84   1.265       .  A
O77         Co82   1.955       .  S
O78          C85   1.279       .  A
O78         Co81   1.920       .  S
Co79         O83   1.996       .  S
Co80         O83   1.957       .  S
Co81         O83   2.048       .  S
Co82         O83   2.068       .  S
C84         C466   1.458       .  S
C85         C478   1.488       .  S
C86         C493   1.482       .  S
C87         C454   1.442       .  S
C88         C125   1.460       .  S
C88         C517   1.452       .  S
C88         N106   1.340       .  A
N89         N106   1.316       .  A
N89         N111   1.320       .  A
N89        Co126   2.055       .  S
C90         C128   1.468       .  S
C90         N115   1.349       .  A
C90         H135   1.082       .  S
H91         C132   1.082       .  S
C92          C96   1.449       .  S
C92         N116   1.330       .  A
C92         H121   1.079       .  S
Co93        N111   2.083       .  S
Co93        N101   2.093       .  S
Co93        N133   2.099       .  S
Co93        N109   2.106       .  S
Co93       Cl830   2.458       .  S
N94         C132   1.349       .  A
N94         N794   1.324   1_554  A
N94         Co95   2.129       .  S
Co95         N98   2.115       .  S
Co95        N115   2.128       .  S
Co95        N102   2.109       .  S
Co95       Cl137   2.465       .  S
C96         C502   1.488       .  S
C96         N134   1.361       .  A
N97         N127   1.324       .  A
N97         N797   1.314   1_554  A
N97        Co130   2.068       .  S
N98         N116   1.321       .  A
N98         N134   1.332       .  A
N99         C821   1.353       .  A
N99         N109   1.330       .  A
H100        C125   1.081       .  S
N101        N122   1.330       .  A
N101        N787   1.324       .  A
N102        N120   1.321       .  A
N102        N107   1.329       .  A
C103        C131   1.454       .  S
C103        C430   1.491       .  S
C103        N107   1.359       .  A
N104        C119   1.339       .  A
N104        N790   1.314       .  A
N104       Co126   2.072       .  S
C105        C108   1.471       .  S
C105        N133   1.347       .  A
C105        H139   1.081       .  S
C108        C442   1.480       .  S
C108        N129   1.342       .  A
N109        N808   1.325       .  A
N110        C136   1.340       .  A
N110        N805   1.315       .  A
N110       Co126   2.069       .  S
N111        C125   1.343       .  A
N112        N140   1.324       .  A
N112        N803   1.315   1_554  A
N112       Co130   2.078       .  S
H113        C136   1.082       .  S
H114        C131   1.080       .  S
N115        N802   1.326   1_554  A
N116       Co130   2.057       .  S
N117        N129   1.317       .  A
N117        N133   1.320       .  A
N117       Co126   2.059       .  S
C118        C132   1.472       .  S
C118        C234   1.491   1_655  S
C118        N815   1.349   1_554  A
C119        C831   1.460       .  S
C119        H123   1.082       .  S
N120        C131   1.329       .  A
N120       Co130   2.057       .  S
N122        C811   1.349       .  A
C124        C373   1.465       .  S
C124        C829   1.459   1_554  S
C124        N140   1.350       .  A
Co126      Cl830   2.441       .  S
N127        C138   1.348       .  A
C128        C262   1.492       .  S
C128        N792   1.353   1_554  A
Co130      Cl137   2.424       .  S
C136        C817   1.458       .  S
Cl137      Co786   2.453   1_554  S
Cl137      Co819   2.447   1_554  S
C138        C177   1.463       .  S
C138        C812   1.460   1_554  S
C141        C178   1.469       .  S
C141        C658   1.472       .  S
C141        N159   1.340       .  A
N142        N159   1.314       .  A
N142        N164   1.320       .  A
N142       Co179   2.052       .  S
C143        C181   1.469       .  S
C143        N168   1.347       .  A
C143        H188   1.082       .  S
H144        C185   1.082       .  S
C145        C149   1.453       .  S
C145        N169   1.331       .  A
C145        H174   1.080       .  S
Co146       N164   2.085       .  S
Co146       N154   2.121       .  S
Co146       N186   2.103       .  S
Co146       N162   2.089       .  S
Co146      Cl883   2.471       .  S
N147        C185   1.350       .  A
N147        N847   1.325   1_554  A
N147       Co148   2.121       .  S
Co148       N151   2.114       .  S
Co148       N168   2.123       .  S
Co148       N155   2.107       .  S
Co148      Cl190   2.462       .  S
C149        C646   1.489       .  S
C149        N187   1.360       .  A
N150        N180   1.327       .  A
N150        N850   1.315   1_554  A
N150       Co183   2.094       .  S
N151        N169   1.322       .  A
N151        N187   1.330       .  A
N152        C874   1.349       .  A
N152        N162   1.329       .  A
H153        C178   1.081       .  S
N154        N175   1.332       .  A
N154        N840   1.325       .  A
N155        N173   1.322       .  A
N155        N160   1.330       .  A
C156        C184   1.460       .  S
C156        C526   1.493       .  S
C156        N160   1.358       .  A
N157        C172   1.339       .  A
N157        N843   1.315       .  A
N157       Co179   2.064       .  S
C158        C161   1.474       .  S
C158        N186   1.347       .  A
C158        H192   1.081       .  S
C161        C541   1.479       .  S
C161        N182   1.341       .  A
N162        N861   1.324       .  A
N163        C189   1.337       .  A
N163        N858   1.315       .  A
N163       Co179   2.063       .  S
N164        C178   1.345       .  A
N165        N193   1.325       .  A
N165        N856   1.315   1_554  A
N165       Co183   2.080       .  S
H166        C189   1.082       .  S
H167        C184   1.080       .  S
N168        N855   1.324   1_554  A
N169       Co183   2.059       .  S
N170        N182   1.317       .  A
N170        N186   1.320       .  A
N170       Co179   2.054       .  S
C171        C185   1.467       .  S
C171        C255   1.497   1_545  S
C171        N868   1.356   1_554  A
C172        C884   1.454       .  S
C172        H176   1.082       .  S
N173        C184   1.334       .  A
N173       Co183   2.078       .  S
N175        C864   1.356       .  A
C177        C882   1.455   1_554  S
C177        N193   1.352       .  A
Co179      Cl883   2.423       .  S
N180        C191   1.355       .  A
C181        C330   1.486   1_655  S
C181        N845   1.349   1_554  A
Co183      Cl190   2.441       .  S
C189        C870   1.455       .  S
Cl190      Co839   2.471   1_554  S
Cl190      Co872   2.424   1_554  S
C191        C353   1.470       .  S
C191        C865   1.454   1_554  S
C194        C231   1.477       .  S
C194        C613   1.492       .  S
C194        N212   1.344       .  A
N195        N212   1.319       .  A
N195        N217   1.322       .  A
N195       Co232   2.068       .  S
C196        C234   1.454       .  S
C196        N221   1.342       .  A
C196        H241   1.082       .  S
H197        C238   1.082       .  S
C198        C202   1.453       .  S
C198        N222   1.331       .  A
C198        H227   1.082       .  S
Co199       N217   2.120       .  S
Co199       N207   2.106       .  S
Co199       N239   2.095       .  S
Co199       N215   2.144       .  S
Co199      Cl936   2.472       .  S
N200        C238   1.345       .  A
N200        N900   1.323   1_554  A
N200       Co201   2.106       .  S
Co201       N204   2.082       .  S
Co201       N221   2.086       .  S
Co201       N208   2.101       .  S
Co201      Cl243   2.461       .  S
C202        C601   1.472       .  S
C202        N240   1.353       .  A
N203        N233   1.322       .  A
N203        N903   1.316   1_554  A
N203       Co236   2.057       .  S
N204        N222   1.320       .  A
N204        N240   1.327       .  A
N205        C927   1.362       .  A
N205        N215   1.335       .  A
H206        C231   1.081       .  S
N207        N228   1.330       .  A
N207        N893   1.323       .  A
N208        N226   1.322       .  A
N208        N213   1.329       .  A
C209        C237   1.446       .  S
C209        C574   1.466       .  S
C209        N213   1.353       .  A
N210        C225   1.342       .  A
N210        N896   1.316       .  A
N210       Co232   2.086       .  S
C211        C214   1.472       .  S
C211        N239   1.346       .  A
C211        H245   1.081       .  S
C214        C586   1.488       .  S
C214        N235   1.343       .  A
N215        N914   1.324       .  A
N216        C242   1.336       .  A
N216        N911   1.317       .  A
N216       Co232   2.073       .  S
N217        C231   1.352       .  A
N218        N246   1.330       .  A
N218        N909   1.317   1_554  A
N218       Co236   2.095       .  S
H219        C242   1.082       .  S
H220        C237   1.082       .  S
N221        N908   1.324   1_554  A
N222       Co236   2.068       .  S
N223        N235   1.318       .  A
N223        N239   1.322       .  A
N223       Co232   2.068       .  S
C224        C238   1.463       .  S
C224        C361   1.484   1_564  S
C224        N921   1.353   1_554  A
C225        C937   1.464       .  S
C225        H229   1.082       .  S
N226        C237   1.332       .  A
N226       Co236   2.059       .  S
N228        C917   1.353       .  A
C230        C350   1.475       .  S
C230        C935   1.456   1_554  S
C230        N246   1.355       .  A
Co232      Cl936   2.425       .  S
N233        C244   1.345       .  A
C234        N898   1.362   1_554  A
Co236      Cl243   2.446       .  S
C242        C923   1.456       .  S
Cl243      Co892   2.472   1_554  S
Cl243      Co925   2.425   1_554  S
C244        C247   1.462       .  S
C244        C918   1.464   1_554  S
C247        C284   1.465       .  S
C247        N958   1.345   1_554  A
N248        N265   1.322       .  A
N248        N963   1.315       .  A
N248       Co285   2.060       .  S
C249        C287   1.473       .  S
C249        N274   1.343       .  A
C249        H294   1.080       .  S
H250        C291   1.081       .  S
C251        C948   1.466       .  S
C251        N275   1.349       .  A
C251        H280   1.082       .  S
Co252       N270   2.081       .  S
Co252       N260   2.061       .  S
Co252       N292   2.081       .  S
Co252       N268   2.042       .  S
Co252      Cl296   2.439       .  S
N253        C291   1.345       .  A
N253        N260   1.323       .  A
N253       Co254   2.096       .  S
Co254       N257   2.119       .  S
Co254       N274   2.092       .  S
Co254       N261   2.109       .  S
Co254      Cl296   2.451       .  S
C255        C944   1.466   1_554  S
C255        N293   1.357       .  A
N256        N263   1.319       .  A
N256        N286   1.324       .  A
N256       Co289   2.087       .  S
N257        N293   1.333       .  A
N257        N968   1.324   1_554  A
N258        C287   1.339       .  A
N258        N268   1.311       .  A
H259        C284   1.082       .  S
N260        N281   1.319       .  A
N261        N266   1.331       .  A
N261        N972   1.322   1_554  A
C262        C983   1.467   1_554  S
C262        N266   1.353       .  A
N263        C278   1.323       .  A
N263       Co285   2.021       .  S
C264        C267   1.464       .  S
C264        N292   1.342       .  A
C264        H298   1.082       .  S
N265        C940   1.345       .  A
C267        C336   1.460       .  S
C267        N981   1.344   1_554  A
N268        N274   1.319       .  A
N269        C295   1.319       .  A
N269        N271   1.318       .  A
N269       Co285   2.029       .  S
N270        C284   1.341       .  A
N270        N941   1.315   1_554  A
N271        N299   1.332       .  A
N271       Co289   2.113       .  S
H272        C295   1.080       .  S
H273        C290   1.082       .  S
N275        N950   1.324       .  A
N275       Co289   2.118       .  S
N276        N288   1.322       .  A
N276        N985   1.312       .  A
N276       Co285   2.049       .  S
C277        C291   1.461       .  S
C277        C622   1.461       .  S
C277        N281   1.340       .  A
C278        C297   1.435       .  S
C278        H282   1.081       .  S
N279        C290   1.349       .  A
N279        N954   1.322       .  A
N279       Co289   2.110       .  S
C283        C295   1.441       .  S
C283        C469   1.475       .  S
C283        N299   1.362       .  A
Co285      Cl989   2.413       .  S
N286        C297   1.352       .  A
C287        C457   1.469       .  S
N288        C960   1.344       .  A
Co289      Cl989   2.468       .  S
C290        C955   1.467       .  S
N292        N969   1.312   1_554  A
Cl296      Co978   2.413   1_554  S
Cl296      Co982   2.468   1_554  S
C297        C637   1.446       .  S
C300        C337   1.474       .  S
C300        C562   1.496       .  S
C300        N318   1.347       .  A
N301        N318   1.322       .  A
N301        N323   1.323       .  A
N301       Co338   2.085       .  S
C302        C340   1.461   1_554  S
C302        N327   1.344       .  A
C302        H347   1.082       .  S
H303        C344   1.081       .  S
C304        C308   1.441       .  S
C304        N328   1.318       .  A
C304        H333   1.081       .  S
Co305       N323   2.107       .  S
Co305       N313   2.135       .  S
Co305       N345   2.109       .  S
Co305       N321   2.122       .  S
Co305     Cl1042   2.472       .  S
N306        C344   1.340       .  A
N306       N1006   1.324   1_554  A
N306       Co307   2.082       .  S
Co307       N310   2.097       .  S
Co307       N327   2.104       .  S
Co307       N314   2.094       .  S
Co307      Cl349   2.466       .  S
C308        C553   1.462       .  S
C308        N346   1.356       .  A
N309        N339   1.330       .  A
N309       N1009   1.316   1_554  A
N309       Co342   2.098       .  S
N310        N328   1.319       .  A
N310        N346   1.330       .  A
N311       C1033   1.355       .  A
N311        N321   1.333       .  A
H312        C337   1.081       .  S
N313        N334   1.334       .  A
N313        N999   1.324       .  A
N314        N332   1.321       .  A
N314        N319   1.329       .  A
C315        C343   1.453       .  S
C315        C481   1.475       .  S
C315        N319   1.353       .  A
N316        C331   1.337       .  A
N316       N1002   1.316       .  A
N316       Co338   2.068       .  S
C317        C320   1.468       .  S
C317        N345   1.350       .  A
C317        H351   1.081       .  S
C320        C490   1.467       .  S
C320        N341   1.338       .  A
N321       N1020   1.325       .  A
N322        C348   1.342       .  A
N322       N1017   1.316       .  A
N322       Co338   2.095       .  S
N323        C337   1.350       .  A
N324        N352   1.320       .  A
N324       N1015   1.316   1_554  A
N324       Co342   2.046       .  S
H325        C348   1.082       .  S
H326        C343   1.082       .  S
N327       N1014   1.325   1_554  A
N328       Co342   2.030       .  S
N329        N341   1.316       .  A
N329        N345   1.323       .  A
N329       Co338   2.055       .  S
C330        C344   1.451       .  S
C330       N1027   1.361   1_554  A
C331       C1043   1.458       .  S
C331        H335   1.082       .  S
N332        C343   1.337       .  A
N332       Co342   2.079       .  S
N334       C1023   1.361       .  A
C336       C1041   1.465   1_554  S
C336        N352   1.343       .  A
Co338     Cl1042   2.430       .  S
N339        C350   1.354       .  A
C340        C368   1.489       .  S
C340       N1004   1.355       .  A
Co342      Cl349   2.439       .  S
C348       C1029   1.465       .  S
Cl349      Co998   2.472   1_554  S
Cl349     Co1031   2.430   1_554  S
C350       C1024   1.458   1_554  S
C353        C390   1.456       .  S
C353       N1064   1.354   1_554  A
N354        N371   1.326       .  A
N354       N1069   1.316       .  A
N354       Co391   2.090       .  S
C355        C393   1.473       .  S
C355        N380   1.351       .  A
C355        H400   1.081       .  S
H356        C397   1.081       .  S
C357       C1054   1.465       .  S
C357        N381   1.348       .  A
C357        H386   1.082       .  S
Co358       N376   2.071       .  S
Co358       N366   2.060       .  S
Co358       N398   2.065       .  S
Co358       N374   2.056       .  S
Co358      Cl402   2.417   1_554  S
N359        C397   1.348       .  A
N359        N366   1.319       .  A
N359       Co360   2.078       .  S
Co360       N363   2.100       .  S
Co360       N380   2.098       .  S
Co360       N367   2.097       .  S
Co360      Cl402   2.476   1_554  S
C361       C1050   1.465       .  S
C361        N399   1.351   1_556  A
N362        N369   1.323       .  A
N362        N392   1.330       .  A
N362       Co395   2.111       .  S
N363        N399   1.328       .  A
N363       N1074   1.323   1_554  A
N364        C393   1.339       .  A
N364        N374   1.313       .  A
H365        C390   1.082       .  S
N366        N387   1.312       .  A
N367        N372   1.327       .  A
N367       N1078   1.324   1_554  A
C368       C1089   1.469       .  S
C368        N372   1.351   1_556  A
N369        C384   1.336       .  A
N369       Co391   2.078       .  S
C370        C373   1.457       .  S
C370        N398   1.338       .  A
C370        H404   1.082       .  S
N371       C1046   1.354       .  A
C373       N1087   1.352   1_554  A
N374        N380   1.320       .  A
N375        C401   1.330       .  A
N375        N377   1.321       .  A
N375       Co391   2.062       .  S
N376        C390   1.341       .  A
N376       N1047   1.316   1_554  A
N377        N405   1.328       .  A
N377       Co395   2.101       .  S
H378        C401   1.080       .  S
H379        C396   1.082       .  S
N381       N1056   1.323       .  A
N381       Co395   2.112       .  S
N382        N394   1.325       .  A
N382       N1091   1.315       .  A
N382       Co391   2.084       .  S
C383        C397   1.463       .  S
C383        C673   1.462       .  S
C383        N387   1.341       .  A
C384        C403   1.458       .  S
C384        H388   1.082       .  S
N385        C396   1.351       .  A
N385       N1060   1.324       .  A
N385       Co395   2.125       .  S
C389        C401   1.453       .  S
C389        C421   1.483       .  S
C389        N405   1.357       .  A
Co391     Cl1095   2.439       .  S
N392        C403   1.357       .  A
C393        C409   1.483       .  S
N394       C1066   1.352       .  A
Co395     Cl1095   2.460       .  S
C396       C1061   1.469       .  S
N398       N1075   1.315   1_554  A
Cl402     Co1084   2.439       .  S
Cl402     Co1088   2.460       .  S
C403        C682   1.490       .  S
C406        C407   1.393       .  A
C406        C411   1.411       .  A
C407        H412   1.082       .  S
C407        C408   1.389       .  A
C408        C409   1.419       .  A
C408        O413   1.372       .  S
C409        C410   1.403       .  A
C410        H414   1.083       .  S
C410        C411   1.406       .  A
C411        O415   1.369       .  S
O413        H417   0.992       .  S
O415        H416   0.991       .  S
C418        C419   1.399       .  A
C418        C423   1.417       .  A
C419        H424   1.084       .  S
C419        C420   1.397       .  A
C420        C421   1.416       .  A
C420        O425   1.372       .  S
C421        C422   1.399       .  A
C422        H426   1.084       .  S
C422        C423   1.404       .  A
C423        O427   1.372       .  S
O425        H429   0.992       .  S
O427        H428   0.990       .  S
C430        C431   1.410       .  A
C430        C435   1.409       .  A
C431        H436   1.079       .  S
C431        C432   1.395       .  A
C432        C433   1.406       .  A
C432        O437   1.370       .  S
C433        C434   1.411       .  A
C434        H438   1.083       .  S
C434        C435   1.404       .  A
C435        O439   1.371       .  S
O437        H441   0.991       .  S
O439        H440   0.991       .  S
C442        C443   1.410       .  A
C442        C447   1.402       .  A
C443        H448   1.083       .  S
C443        C444   1.400       .  A
C444        C445   1.406       .  A
C444        O449   1.372       .  S
C445        C446   1.411       .  A
C446        H450   1.078       .  S
C446        C447   1.400       .  A
C447        O451   1.372       .  S
O449        H453   0.992       .  S
O451        H452   0.992       .  S
C454        C455   1.401       .  A
C454        C459   1.395       .  A
C455        H460   1.084       .  S
C455        C456   1.395       .  A
C456        C457   1.406       .  A
C456        O461   1.370       .  S
C457        C458   1.411       .  A
C458        H462   1.084       .  S
C458        C459   1.388       .  A
C459        O463   1.372       .  S
O461        H465   0.992       .  S
O463        H464   0.992       .  S
C466        C467   1.385       .  A
C466        C471   1.408       .  A
C467        H472   1.075       .  S
C467        C468   1.384       .  A
C468        C469   1.416       .  A
C468        O473   1.371       .  S
C469        C470   1.404       .  A
C470        H474   1.083       .  S
C470        C471   1.410       .  A
C471        O475   1.378       .  S
O473        H477   0.992       .  S
O475        H476   0.992       .  S
C478        C479   1.409       .  A
C478        C483   1.409       .  A
C479        H484   1.082       .  S
C479        C480   1.394       .  A
C480        C481   1.399       .  A
C480        O485   1.372       .  S
C481        C482   1.409       .  A
C482        H486   1.083       .  S
C482        C483   1.412       .  A
C483        O487   1.371       .  S
O485        H489   0.992       .  S
O487        H488   0.992       .  S
C490        C491   1.408       .  A
C490        C495   1.398       .  A
C491        H496   1.083       .  S
C491        C492   1.413       .  A
C492        C493   1.411       .  A
C492        O497   1.371       .  S
C493        C494   1.408       .  A
C494        H498   1.083       .  S
C494        C495   1.384       .  A
C495        O499   1.373       .  S
O497        H501   0.991       .  S
O499        H500   0.992       .  S
C502        C503   1.397       .  A
C502        C507   1.421       .  A
C503        H508   1.084       .  S
C503        C504   1.399       .  A
C504        C505   1.415       .  A
C504        O509   1.367       .  S
C505        C506   1.395       .  A
C506        H510   1.083       .  S
C506        C507   1.404       .  A
C507        O511   1.372       .  S
O509        H513   0.991       .  S
O511        H512   0.992       .  S
C514        C515   1.404       .  A
C514        C519   1.419       .  A
C515        H520   1.083       .  S
C515        C516   1.396       .  A
C516        C517   1.405       .  A
C516        O521   1.373       .  S
C517        C518   1.392       .  A
C518        H522   1.084       .  S
C518        C519   1.393       .  A
C519        O523   1.371   1_655  S
O521        H525   0.992       .  S
O523        H524   0.992       .  S
C526        C527   1.409       .  A
C526        C531   1.410       .  A
C527        H532   1.080       .  S
C527        C528   1.399       .  A
C528        C529   1.405       .  A
C528        O533   1.372       .  S
C529        C530   1.407       .  A
C530        H534   1.081       .  S
C530        C531   1.407       .  A
C531        O535   1.371       .  S
O533        H537   0.991       .  S
O535        H536   0.992       .  S
C538        C539   1.404       .  A
C538        C543   1.399       .  A
C539        H544   1.077   1_655  S
C539        C540   1.396       .  A
C540        C541   1.403       .  A
C540        O545   1.371       .  S
C541        C542   1.414       .  A
C542        H546   1.083       .  S
C542        C543   1.401       .  A
C543        O547   1.372       .  S
O545        H549   0.992       .  S
O547        H548   0.992       .  S
C550        C551   1.397       .  A
C550        C555   1.408       .  A
C551        H556   1.078       .  S
C551        C552   1.378       .  A
C552        C553   1.404       .  A
C552        O557   1.375       .  S
C553        C554   1.407       .  A
C554        H558   1.083       .  S
C554        C555   1.413       .  A
C555        O559   1.374       .  S
O557        H561   0.993       .  S
O559        H560   0.992       .  S
C562        C563   1.408       .  A
C562        C567   1.412       .  A
C563        H568   1.082       .  S
C563        C564   1.412       .  A
C564        C565   1.412       .  A
C564        O569   1.372       .  S
C565        C566   1.406       .  A
C566        H570   1.084       .  S
C566        C567   1.402       .  A
C567        O571   1.372       .  S
O569        H573   0.992       .  S
O571        H572   0.992       .  S
C574        C575   1.390       .  A
C574        C579   1.410       .  A
C575        H580   1.085       .  S
C575        C576   1.391       .  A
C576        C577   1.412       .  A
C576        O581   1.367       .  S
C577        C578   1.406       .  A
C578        H582   1.083       .  S
C578        C579   1.410       .  A
C579        O583   1.371       .  S
O581        H585   0.993       .  S
O583        H584   0.992       .  S
C586        C587   1.402       .  A
C586        C591   1.417       .  A
C587        H592   1.082       .  S
C587        C588   1.401       .  A
C588        C589   1.417       .  A
C588        O593   1.372       .  S
C589        C590   1.402       .  A
C590        H594   1.084       .  S
C590        C591   1.398       .  A
C591        O595   1.372       .  S
O593        H597   0.991       .  S
O595        H596   0.992       .  S
C598        C599   1.407       .  A
C598        C603   1.415       .  A
C599        H604   1.083       .  S
C599        C600   1.404       .  A
C600        C601   1.409       .  A
C600        O605   1.371       .  S
C601        C602   1.398       .  A
C602        H606   1.084       .  S
C602        C603   1.390       .  A
C603        O607   1.371       .  S
O605        H609   0.992       .  S
O607        H608   0.992       .  S
C610        C611   1.406       .  A
C610        C615   1.401       .  A
C611        H616   1.082       .  S
C611        C612   1.411       .  A
C612        C613   1.412       .  A
C612        O617   1.370       .  S
C613        C614   1.407       .  A
C614        H618   1.084       .  S
C614        C615   1.398       .  A
C615        O619   1.366       .  S
O617        H621   0.992       .  S
O619        H620   0.992       .  S
C622        C623   1.408       .  A
C622        C627   1.393       .  A
C623        H628   1.084       .  S
C623        C624   1.408       .  A
C624        C625   1.407       .  A
C624        O629   1.371       .  S
C625        C626   1.416       .  A
C626        H630   1.084       .  S
C626        C627   1.388       .  A
C627        O631   1.373       .  S
O629        H633   0.992       .  S
O631        H632   0.991       .  S
C634        C635   1.397       .  A
C634        C639   1.406       .  A
C635        H640   1.083       .  S
C635        C636   1.397       .  A
C636        C637   1.413       .  A
C636        O641   1.373       .  S
C637        C638   1.384       .  A
C638        H642   1.085       .  S
C638        C639   1.383       .  A
C639        O643   1.358   1_565  S
O641        H645   0.992       .  S
O643        H644   0.992       .  S
C646        C647   1.412       .  A
C646        C651   1.404       .  A
C647        H652   1.080       .  S
C647        C648   1.401       .  A
C648        C649   1.405       .  A
C648        O653   1.372       .  S
C649        C650   1.414       .  A
C650        H654   1.083       .  S
C650        C651   1.401       .  A
C651        O655   1.371       .  S
O653        H657   0.992       .  S
O655        H656   0.992       .  S
C658        C659   1.401       .  A
C658        C663   1.411       .  A
C659        H664   1.084       .  S
C659        C660   1.389       .  A
C660        C661   1.411       .  A
C660        O665   1.374       .  S
C661        C662   1.406       .  A
C662        H666   1.083       .  S
C662        C663   1.405       .  A
C663        O667   1.370       .  S
O665        H669   0.992       .  S
O667        H668   0.992       .  S
C670        C671   1.408       .  A
C670        C675   1.421       .  A
C671        H676   1.083       .  S
C671        C672   1.411       .  A
C672        C673   1.409       .  A
C672        O677   1.370       .  S
C673        C674   1.390       .  A
C674        H678   1.085       .  S
C674        C675   1.378       .  A
C675        O679   1.374       .  S
O677        H681   0.992       .  S
O679        H680   0.993       .  S
C682        C683   1.408       .  A
C682        C687   1.407       .  A
C683        H688   1.082       .  S
C683        C684   1.401       .  A
C684        C685   1.409       .  A
C684        O689   1.371       .  S
C685        C686   1.410       .  A
C686        H690   1.079       .  S
C686        C687   1.407       .  A
C687        O691   1.372       .  S
O689        H693   0.992       .  S
O691        H692   0.992       .  S
O694        C702   1.276       .  A
O694       Co714   2.012   1_565  S
O695        C703   1.251       .  A
O695       Co715   1.950   1_565  S
O696        C704   1.277       .  A
O696       Co716   1.899       .  S
O697        C705   1.263       .  A
O697       Co717   1.957       .  S
O698        C704   1.297       .  A
O698       Co715   2.107   1_565  S
O699        C705   1.277   1_545  A
O699       Co714   2.016       .  S
O700        C703   1.268       .  A
O700       Co717   2.012       .  S
O701        C702   1.278       .  A
O701       Co716   1.999       .  S
C702       C1303   1.480       .  S
C703       C1318   1.486       .  S
C704       C1291   1.482       .  S
C705       C1327   1.462       .  S
O706        C719   1.255       .  A
O706       Co714   1.958       .  S
O707        C720   1.246       .  A
O707       Co715   1.818       .  S
O708        C721   1.264       .  A
O708       Co716   2.018   1_545  S
O709        C722   1.270       .  A
O709       Co717   2.001   1_545  S
O710        C722   1.270       .  A
O710       Co715   1.978       .  S
O711        C721   1.258       .  A
O711       Co714   1.967       .  S
O712        C719   1.272       .  A
O712       Co717   2.026   1_545  S
O713        C720   1.305       .  A
O713       Co716   2.160   1_545  S
Co714       O718   1.993       .  S
Co715       O718   1.922       .  S
Co716       O718   2.061   1_565  S
Co717       O718   2.091   1_565  S
C719       C1354   1.471       .  S
C720       C1363   1.481       .  S
C721       C1378   1.494       .  S
C722       C1342   1.488       .  S
O723        C731   1.269   1_455  A
O723       Co743   1.994       .  S
O724        C732   1.290       .  A
O724       Co744   2.066   1_655  S
O725        C733   1.259       .  A
O725       Co745   1.991       .  S
O726        C734   1.273       .  A
O726       Co746   1.986   1_655  S
O727        C733   1.252       .  A
O727       Co744   1.981   1_655  S
O728        C734   1.274   1_455  A
O728       Co743   2.007       .  S
O729        C732   1.272       .  A
O729       Co746   1.926   1_655  S
O730        C731   1.270       .  A
O730       Co745   1.973       .  S
C731       C1207   1.476       .  S
C732       C1222   1.484       .  S
C733       C1198   1.478       .  S
C734       C1231   1.467       .  S
O735        C748   1.261       .  A
O735       Co743   1.964       .  S
O736        C749   1.270       .  A
O736       Co744   1.978       .  S
O737        C750   1.264       .  A
O737       Co745   1.996   1_455  S
O738        C751   1.294       .  A
O738       Co746   2.111       .  S
O739        C751   1.256       .  A
O739       Co744   1.860       .  S
O740        C750   1.263       .  A
O740       Co743   1.967       .  S
O741        C748   1.262       .  A
O741       Co746   2.018       .  S
O742        C749   1.274       .  A
O742       Co745   2.022   1_455  S
Co743       O747   2.025       .  S
Co744       O747   1.986       .  S
Co745       O747   2.081   1_655  S
Co746       O747   2.067       .  S
C748       C1258   1.494       .  S
C749       C1270   1.481       .  S
C750       C1282   1.486       .  S
C751       C1243   1.465       .  S
O752        C760   1.270       .  A
O752       Co772   1.981       .  S
O753        C761   1.272       .  A
O753       Co773   1.974       .  S
O754        C762   1.294       .  A
O754       Co774   2.134       .  S
O755        C763   1.267       .  A
O755       Co775   2.002       .  S
O756        C762   1.259       .  A
O756       Co773   1.867       .  S
O757        C763   1.263       .  A
O757       Co772   1.969       .  S
O758        C761   1.274       .  A
O758       Co775   2.009       .  S
O759        C760   1.268       .  A
O759       Co774   1.997       .  S
C760       C1111   1.484       .  S
C761       C1126   1.486       .  S
C762       C1099   1.468       .  S
C763       C1138   1.486       .  S
O764        C777   1.279       .  A
O764       Co772   2.023       .  S
O765        C778   1.295       .  A
O765       Co773   2.104       .  S
O766        C779   1.281       .  A
O766       Co774   2.005       .  S
O767        C780   1.259       .  A
O767       Co775   1.973       .  S
O768        C780   1.255       .  A
O768       Co773   1.969       .  S
O769        C779   1.269       .  A
O769       Co772   1.973       .  S
O770        C777   1.265       .  A
O770       Co775   1.955       .  S
O771        C778   1.279       .  A
O771       Co774   1.920       .  S
Co772       O776   1.996       .  S
Co773       O776   1.957       .  S
Co774       O776   2.048       .  S
Co775       O776   2.068       .  S
C777       C1159   1.457       .  S
C778       C1171   1.488       .  S
C779       C1186   1.482       .  S
C780       C1147   1.442       .  S
C781        C818   1.460       .  S
C781       C1210   1.453       .  S
C781        N799   1.340       .  A
N782        N799   1.316       .  A
N782        N804   1.319       .  A
N782       Co819   2.055       .  S
C783        C821   1.468       .  S
C783        N808   1.349       .  A
C783        H828   1.082       .  S
H784        C825   1.082       .  S
C785        C789   1.449       .  S
C785        N809   1.330       .  A
C785        H814   1.079       .  S
Co786       N804   2.083       .  S
Co786       N794   2.094       .  S
Co786       N826   2.098       .  S
Co786       N802   2.107       .  S
N787        C825   1.349       .  A
N787       Co788   2.128       .  S
Co788       N791   2.115       .  S
Co788       N808   2.126       .  S
Co788       N795   2.109       .  S
Co788      Cl830   2.472       .  S
C789       C1195   1.488       .  S
C789        N827   1.361       .  A
N790        N820   1.324       .  A
N790       Co823   2.068       .  S
N791        N809   1.321       .  A
N791        N827   1.332       .  A
N792        N802   1.330       .  A
H793        C818   1.081       .  S
N794        N815   1.330       .  A
N795        N813   1.321       .  A
N795        N800   1.329       .  A
C796        C824   1.454       .  S
C796       C1123   1.491       .  S
C796        N800   1.360       .  A
N797        C812   1.339       .  A
N797       Co819   2.071       .  S
C798        C801   1.471       .  S
C798        N826   1.347       .  A
C798        H832   1.081       .  S
C801       C1135   1.480       .  S
C801        N822   1.343       .  A
N803        C829   1.340       .  A
N803       Co819   2.069       .  S
N804        C818   1.343       .  A
N805        N833   1.324       .  A
N805       Co823   2.079       .  S
H806        C829   1.082       .  S
H807        C824   1.080       .  S
N809       Co823   2.057       .  S
N810        N822   1.317       .  A
N810        N826   1.320       .  A
N810       Co819   2.059       .  S
C811        C825   1.472       .  S
C811        C927   1.491   1_655  S
C812        H816   1.082       .  S
N813        C824   1.329       .  A
N813       Co823   2.057       .  S
C817       C1066   1.465       .  S
C817        N833   1.350       .  A
N820        C831   1.348       .  A
C821        C955   1.492       .  S
Co823      Cl830   2.419       .  S
C831        C870   1.463       .  S
C834        C871   1.469       .  S
C834       C1351   1.472       .  S
C834        N852   1.340       .  A
N835        N852   1.314       .  A
N835        N857   1.320       .  A
N835       Co872   2.052       .  S
C836        C874   1.469       .  S
C836        N861   1.347       .  A
C836        H881   1.082       .  S
H837        C878   1.082       .  S
C838        C842   1.453       .  S
C838        N862   1.331       .  A
C838        H867   1.080       .  S
Co839       N857   2.085       .  S
Co839       N847   2.121       .  S
Co839       N879   2.103       .  S
Co839       N855   2.089       .  S
N840        C878   1.350       .  A
N840       Co841   2.121       .  S
Co841       N844   2.114       .  S
Co841       N861   2.123       .  S
Co841       N848   2.107       .  S
Co841      Cl883   2.462       .  S
C842       C1339   1.489       .  S
C842        N880   1.360       .  A
N843        N873   1.327       .  A
N843       Co876   2.094       .  S
N844        N862   1.322       .  A
N844        N880   1.330       .  A
N845        N855   1.329       .  A
H846        C871   1.081       .  S
N847        N868   1.332       .  A
N848        N866   1.322       .  A
N848        N853   1.330       .  A
C849        C877   1.460       .  S
C849       C1219   1.493       .  S
C849        N853   1.358       .  A
N850        C865   1.339       .  A
N850       Co872   2.064       .  S
C851        C854   1.474       .  S
C851        N879   1.347       .  A
C851        H885   1.081       .  S
C854       C1234   1.479       .  S
C854        N875   1.341       .  A
N856        C882   1.337       .  A
N856       Co872   2.064       .  S
N857        C871   1.345       .  A
N858        N886   1.325       .  A
N858       Co876   2.080       .  S
H859        C882   1.082       .  S
H860        C877   1.080       .  S
N862       Co876   2.059       .  S
N863        N875   1.317       .  A
N863        N879   1.320       .  A
N863       Co872   2.054       .  S
C864        C878   1.467       .  S
C864        C948   1.497   1_545  S
C865        H869   1.082       .  S
N866        C877   1.334       .  A
N866       Co876   2.078       .  S
C870        N886   1.352       .  A
N873        C884   1.355       .  A
C874       C1023   1.486   1_655  S
Co876      Cl883   2.441       .  S
C884       C1046   1.470       .  S
C887        C924   1.477       .  S
C887       C1306   1.492       .  S
C887        N905   1.344       .  A
N888        N905   1.319       .  A
N888        N910   1.322       .  A
N888       Co925   2.068       .  S
C889        C927   1.454       .  S
C889        N914   1.342       .  A
C889        H934   1.082       .  S
H890        C931   1.082       .  S
C891        C895   1.453       .  S
C891        N915   1.331       .  A
C891        H920   1.082       .  S
Co892       N910   2.120       .  S
Co892       N900   2.106       .  S
Co892       N932   2.095       .  S
Co892       N908   2.144       .  S
N893        C931   1.345       .  A
N893       Co894   2.106       .  S
Co894       N897   2.082       .  S
Co894       N914   2.086       .  S
Co894       N901   2.101       .  S
Co894      Cl936   2.461       .  S
C895       C1294   1.472       .  S
C895        N933   1.353       .  A
N896        N926   1.322       .  A
N896       Co929   2.057       .  S
N897        N915   1.320       .  A
N897        N933   1.327       .  A
N898        N908   1.335       .  A
H899        C924   1.081       .  S
N900        N921   1.330       .  A
N901        N919   1.322       .  A
N901        N906   1.329       .  A
C902        C930   1.446       .  S
C902       C1267   1.466       .  S
C902        N906   1.353       .  A
N903        C918   1.342       .  A
N903       Co925   2.086       .  S
C904        C907   1.472       .  S
C904        N932   1.346       .  A
C904        H938   1.081       .  S
C907       C1279   1.488       .  S
C907        N928   1.343       .  A
N909        C935   1.336       .  A
N909       Co925   2.072       .  S
N910        C924   1.352       .  A
N911        N939   1.330       .  A
N911       Co929   2.095       .  S
H912        C935   1.082       .  S
H913        C930   1.082       .  S
N915       Co929   2.068       .  S
N916        N928   1.318       .  A
N916        N932   1.322       .  A
N916       Co925   2.068       .  S
C917        C931   1.463       .  S
C917       C1054   1.484   1_565  S
C918        H922   1.082       .  S
N919        C930   1.332       .  A
N919       Co929   2.059       .  S
C923       C1043   1.475       .  S
C923        N939   1.355       .  A
N926        C937   1.345       .  A
Co929      Cl936   2.446       .  S
C937        C940   1.462       .  S
C940        C977   1.465       .  S
N941        N958   1.322       .  A
N941       Co978   2.060       .  S
C942        C980   1.473       .  S
C942        N967   1.344       .  A
C942        H987   1.080       .  S
H943        C984   1.081       .  S
C944        N968   1.349       .  A
C944        H973   1.082       .  S
Co945       N963   2.081       .  S
Co945       N953   2.061       .  S
Co945       N985   2.081       .  S
Co945       N961   2.043       .  S
Co945      Cl989   2.439       .  S
N946        C984   1.345       .  A
N946        N953   1.323       .  A
N946       Co947   2.096       .  S
Co947       N950   2.119       .  S
Co947       N967   2.092       .  S
Co947       N954   2.109       .  S
Co947      Cl989   2.451       .  S
C948        N986   1.357       .  A
N949        N956   1.319       .  A
N949        N979   1.324       .  A
N949       Co982   2.087       .  S
N950        N986   1.333       .  A
N951        C980   1.339       .  A
N951        N961   1.311       .  A
H952        C977   1.082       .  S
N953        N974   1.319       .  A
N954        N959   1.331       .  A
C955        N959   1.353       .  A
N956        C971   1.323       .  A
N956       Co978   2.021       .  S
C957        C960   1.464       .  S
C957        N985   1.342       .  A
C957        H991   1.082       .  S
C960       C1029   1.460       .  S
N961        N967   1.319       .  A
N962        C988   1.319       .  A
N962        N964   1.318       .  A
N962       Co978   2.029       .  S
N963        C977   1.341       .  A
N964        N992   1.332       .  A
N964       Co982   2.113       .  S
H965        C988   1.080       .  S
H966        C983   1.082       .  S
N968       Co982   2.118       .  S
N969        N981   1.322       .  A
N969       Co978   2.049       .  S
C970        C984   1.461       .  S
C970       C1315   1.461       .  S
C970        N974   1.340       .  A
C971        C990   1.435       .  S
C971        H975   1.081       .  S
N972        C983   1.349       .  A
N972       Co982   2.110       .  S
C976        C988   1.441       .  S
C976       C1162   1.475       .  S
C976        N992   1.362       .  A
N979        C990   1.352       .  A
C980       C1150   1.469       .  S
C990       C1330   1.446       .  S
C993       C1030   1.474       .  S
C993       C1255   1.496       .  S
C993       N1011   1.347       .  A
N994       N1011   1.322       .  A
N994       N1016   1.323       .  A
N994      Co1031   2.086       .  S
C995       C1033   1.461       .  S
C995       N1020   1.344       .  A
C995       H1040   1.082       .  S
H996       C1037   1.081       .  S
C997       C1001   1.441       .  S
C997       N1021   1.319       .  A
C997       H1026   1.081       .  S
Co998      N1016   2.107       .  S
Co998      N1006   2.135       .  S
Co998      N1038   2.109       .  S
Co998      N1014   2.122       .  S
N999       C1037   1.340       .  A
N999      Co1000   2.082       .  S
Co1000     N1003   2.097       .  S
Co1000     N1020   2.104       .  S
Co1000     N1007   2.094       .  S
Co1000    Cl1042   2.466       .  S
C1001      C1246   1.462       .  S
C1001      N1039   1.356       .  A
N1002      N1032   1.330       .  A
N1002     Co1035   2.098       .  S
N1003      N1021   1.319       .  A
N1003      N1039   1.330       .  A
N1004      N1014   1.333       .  A
H1005      C1030   1.081       .  S
N1006      N1027   1.334       .  A
N1007      N1025   1.321       .  A
N1007      N1012   1.329       .  A
C1008      C1036   1.453       .  S
C1008      C1174   1.475       .  S
C1008      N1012   1.353       .  A
N1009      C1024   1.337       .  A
N1009     Co1031   2.068       .  S
C1010      C1013   1.468       .  S
C1010      N1038   1.350       .  A
C1010      H1044   1.081       .  S
C1013      C1183   1.467       .  S
C1013      N1034   1.338       .  A
N1015      C1041   1.342       .  A
N1015     Co1031   2.095       .  S
N1016      C1030   1.350       .  A
N1017      N1045   1.320       .  A
N1017     Co1035   2.046       .  S
H1018      C1041   1.082       .  S
H1019      C1036   1.082       .  S
N1021     Co1035   2.030       .  S
N1022      N1034   1.316       .  A
N1022      N1038   1.323       .  A
N1022     Co1031   2.055       .  S
C1023      C1037   1.451       .  S
C1024      H1028   1.082       .  S
N1025      C1036   1.337       .  A
N1025     Co1035   2.079       .  S
C1029      N1045   1.343       .  A
N1032      C1043   1.354       .  A
C1033      C1061   1.489       .  S
Co1035    Cl1042   2.439       .  S
C1046      C1083   1.456       .  S
N1047      N1064   1.326       .  A
N1047     Co1084   2.090       .  S
C1048      C1086   1.473       .  S
C1048      N1073   1.351       .  A
C1048      H1093   1.081       .  S
H1049      C1090   1.081       .  S
C1050      N1074   1.348       .  A
C1050      H1079   1.082       .  S
Co1051     N1069   2.071       .  S
Co1051     N1059   2.060       .  S
Co1051     N1091   2.065       .  S
Co1051     N1067   2.056       .  S
Co1051    Cl1095   2.417       .  S
N1052      C1090   1.348       .  A
N1052      N1059   1.319       .  A
N1052     Co1053   2.078       .  S
Co1053     N1056   2.100       .  S
Co1053     N1073   2.098       .  S
Co1053     N1060   2.098       .  S
Co1053    Cl1095   2.476       .  S
C1054      N1092   1.351       .  A
N1055      N1062   1.323       .  A
N1055      N1085   1.330       .  A
N1055     Co1088   2.111       .  S
N1056      N1092   1.328       .  A
N1057      C1086   1.339       .  A
N1057      N1067   1.313       .  A
H1058      C1083   1.082       .  S
N1059      N1080   1.312       .  A
N1060      N1065   1.327       .  A
C1061      N1065   1.351       .  A
N1062      C1077   1.336       .  A
N1062     Co1084   2.078       .  S
C1063      C1066   1.456       .  S
C1063      N1091   1.338       .  A
C1063      H1097   1.082       .  S
N1067      N1073   1.320       .  A
N1068      C1094   1.330       .  A
N1068      N1070   1.321       .  A
N1068     Co1084   2.062       .  S
N1069      C1083   1.341       .  A
N1070      N1098   1.328       .  A
N1070     Co1088   2.101       .  S
H1071      C1094   1.080       .  S
H1072      C1089   1.082       .  S
N1074     Co1088   2.112       .  S
N1075      N1087   1.325       .  A
N1075     Co1084   2.084       .  S
C1076      C1090   1.463       .  S
C1076      C1366   1.462       .  S
C1076      N1080   1.341       .  A
C1077      C1096   1.458       .  S
C1077      H1081   1.082       .  S
N1078      C1089   1.351       .  A
N1078     Co1088   2.126       .  S
C1082      C1094   1.453       .  S
C1082      C1114   1.483       .  S
C1082      N1098   1.357       .  A
N1085      C1096   1.357       .  A
C1086      C1102   1.483       .  S
C1096      C1375   1.490       .  S
C1099      C1100   1.393       .  A
C1099      C1104   1.411       .  A
C1100      H1105   1.082       .  S
C1100      C1101   1.389       .  A
C1101      C1102   1.419       .  A
C1101      O1106   1.372       .  S
C1102      C1103   1.403       .  A
C1103      H1107   1.083       .  S
C1103      C1104   1.406       .  A
C1104      O1108   1.369       .  S
O1106      H1110   0.992       .  S
O1108      H1109   0.991       .  S
C1111      C1112   1.399       .  A
C1111      C1116   1.417       .  A
C1112      H1117   1.084       .  S
C1112      C1113   1.397       .  A
C1113      C1114   1.416       .  A
C1113      O1118   1.372       .  S
C1114      C1115   1.399       .  A
C1115      H1119   1.084       .  S
C1115      C1116   1.404       .  A
C1116      O1120   1.372       .  S
O1118      H1122   0.992       .  S
O1120      H1121   0.990       .  S
C1123      C1124   1.410       .  A
C1123      C1128   1.409       .  A
C1124      H1129   1.079       .  S
C1124      C1125   1.395       .  A
C1125      C1126   1.406       .  A
C1125      O1130   1.370       .  S
C1126      C1127   1.411       .  A
C1127      H1131   1.083       .  S
C1127      C1128   1.404       .  A
C1128      O1132   1.371       .  S
O1130      H1134   0.991       .  S
O1132      H1133   0.991       .  S
C1135      C1136   1.410       .  A
C1135      C1140   1.402       .  A
C1136      H1141   1.083       .  S
C1136      C1137   1.400       .  A
C1137      C1138   1.406       .  A
C1137      O1142   1.372       .  S
C1138      C1139   1.411       .  A
C1139      H1143   1.078       .  S
C1139      C1140   1.400       .  A
C1140      O1144   1.372       .  S
O1142      H1146   0.992       .  S
O1144      H1145   0.992       .  S
C1147      C1148   1.401       .  A
C1147      C1152   1.395       .  A
C1148      H1153   1.084       .  S
C1148      C1149   1.395       .  A
C1149      C1150   1.407       .  A
C1149      O1154   1.370       .  S
C1150      C1151   1.411       .  A
C1151      H1155   1.084       .  S
C1151      C1152   1.388       .  A
C1152      O1156   1.372       .  S
O1154      H1158   0.992       .  S
O1156      H1157   0.992       .  S
C1159      C1160   1.385       .  A
C1159      C1164   1.408       .  A
C1160      H1165   1.075       .  S
C1160      C1161   1.384       .  A
C1161      C1162   1.416       .  A
C1161      O1166   1.371       .  S
C1162      C1163   1.404       .  A
C1163      H1167   1.083       .  S
C1163      C1164   1.410       .  A
C1164      O1168   1.378       .  S
O1166      H1170   0.992       .  S
O1168      H1169   0.992       .  S
C1171      C1172   1.409       .  A
C1171      C1176   1.409       .  A
C1172      H1177   1.082       .  S
C1172      C1173   1.394       .  A
C1173      C1174   1.399       .  A
C1173      O1178   1.372       .  S
C1174      C1175   1.409       .  A
C1175      H1179   1.083       .  S
C1175      C1176   1.412       .  A
C1176      O1180   1.371       .  S
O1178      H1182   0.992       .  S
O1180      H1181   0.992       .  S
C1183      C1184   1.408       .  A
C1183      C1188   1.398       .  A
C1184      H1189   1.083       .  S
C1184      C1185   1.413       .  A
C1185      C1186   1.411       .  A
C1185      O1190   1.371       .  S
C1186      C1187   1.408       .  A
C1187      H1191   1.083       .  S
C1187      C1188   1.384       .  A
C1188      O1192   1.373       .  S
O1190      H1194   0.991       .  S
O1192      H1193   0.992       .  S
C1195      C1196   1.397       .  A
C1195      C1200   1.421       .  A
C1196      H1201   1.084       .  S
C1196      C1197   1.399       .  A
C1197      C1198   1.415       .  A
C1197      O1202   1.367       .  S
C1198      C1199   1.395       .  A
C1199      H1203   1.083       .  S
C1199      C1200   1.404       .  A
C1200      O1204   1.372       .  S
O1202      H1206   0.991       .  S
O1204      H1205   0.992       .  S
C1207      C1208   1.404       .  A
C1207      C1212   1.419       .  A
C1208      H1213   1.083       .  S
C1208      C1209   1.396       .  A
C1209      C1210   1.405       .  A
C1209      O1214   1.373       .  S
C1210      C1211   1.392       .  A
C1211      H1215   1.084       .  S
C1211      C1212   1.393       .  A
C1212      O1216   1.371   1_655  S
O1214      H1218   0.992       .  S
O1216      H1217   0.992       .  S
C1219      C1220   1.409       .  A
C1219      C1224   1.410       .  A
C1220      H1225   1.080       .  S
C1220      C1221   1.399       .  A
C1221      C1222   1.405       .  A
C1221      O1226   1.372       .  S
C1222      C1223   1.407       .  A
C1223      H1227   1.081       .  S
C1223      C1224   1.407       .  A
C1224      O1228   1.371       .  S
O1226      H1230   0.991       .  S
O1228      H1229   0.992       .  S
C1231      C1232   1.404       .  A
C1231      C1236   1.399       .  A
C1232      H1237   1.077   1_655  S
C1232      C1233   1.396       .  A
C1233      C1234   1.403       .  A
C1233      O1238   1.371       .  S
C1234      C1235   1.414       .  A
C1235      H1239   1.083       .  S
C1235      C1236   1.401       .  A
C1236      O1240   1.372       .  S
O1238      H1242   0.992       .  S
O1240      H1241   0.992       .  S
C1243      C1244   1.397       .  A
C1243      C1248   1.408       .  A
C1244      H1249   1.078       .  S
C1244      C1245   1.378       .  A
C1245      C1246   1.404       .  A
C1245      O1250   1.375       .  S
C1246      C1247   1.407       .  A
C1247      H1251   1.083       .  S
C1247      C1248   1.413       .  A
C1248      O1252   1.374       .  S
O1250      H1254   0.993       .  S
O1252      H1253   0.992       .  S
C1255      C1256   1.408       .  A
C1255      C1260   1.412       .  A
C1256      H1261   1.082       .  S
C1256      C1257   1.412       .  A
C1257      C1258   1.412       .  A
C1257      O1262   1.372       .  S
C1258      C1259   1.406       .  A
C1259      H1263   1.084       .  S
C1259      C1260   1.402       .  A
C1260      O1264   1.372       .  S
O1262      H1266   0.992       .  S
O1264      H1265   0.992       .  S
C1267      C1268   1.390       .  A
C1267      C1272   1.410       .  A
C1268      H1273   1.085       .  S
C1268      C1269   1.391       .  A
C1269      C1270   1.412       .  A
C1269      O1274   1.367       .  S
C1270      C1271   1.406       .  A
C1271      H1275   1.083       .  S
C1271      C1272   1.410       .  A
C1272      O1276   1.371       .  S
O1274      H1278   0.993       .  S
O1276      H1277   0.992       .  S
C1279      C1280   1.402       .  A
C1279      C1284   1.417       .  A
C1280      H1285   1.082       .  S
C1280      C1281   1.401       .  A
C1281      C1282   1.417       .  A
C1281      O1286   1.372       .  S
C1282      C1283   1.402       .  A
C1283      H1287   1.084       .  S
C1283      C1284   1.398       .  A
C1284      O1288   1.372       .  S
O1286      H1290   0.991       .  S
O1288      H1289   0.992       .  S
C1291      C1292   1.407       .  A
C1291      C1296   1.415       .  A
C1292      H1297   1.083       .  S
C1292      C1293   1.404       .  A
C1293      C1294   1.409       .  A
C1293      O1298   1.371       .  S
C1294      C1295   1.398       .  A
C1295      H1299   1.084       .  S
C1295      C1296   1.390       .  A
C1296      O1300   1.371       .  S
O1298      H1302   0.992       .  S
O1300      H1301   0.992       .  S
C1303      C1304   1.406       .  A
C1303      C1308   1.401       .  A
C1304      H1309   1.082       .  S
C1304      C1305   1.411       .  A
C1305      C1306   1.412       .  A
C1305      O1310   1.370       .  S
C1306      C1307   1.407       .  A
C1307      H1311   1.084       .  S
C1307      C1308   1.398       .  A
C1308      O1312   1.366       .  S
O1310      H1314   0.992       .  S
O1312      H1313   0.992       .  S
C1315      C1316   1.408       .  A
C1315      C1320   1.393       .  A
C1316      H1321   1.083       .  S
C1316      C1317   1.408       .  A
C1317      C1318   1.407       .  A
C1317      O1322   1.371       .  S
C1318      C1319   1.416       .  A
C1319      H1323   1.084       .  S
C1319      C1320   1.388       .  A
C1320      O1324   1.373       .  S
O1322      H1326   0.992       .  S
O1324      H1325   0.991       .  S
C1327      C1328   1.397       .  A
C1327      C1332   1.406       .  A
C1328      H1333   1.083       .  S
C1328      C1329   1.397       .  A
C1329      C1330   1.413       .  A
C1329      O1334   1.373       .  S
C1330      C1331   1.384       .  A
C1331      H1335   1.085       .  S
C1331      C1332   1.383       .  A
C1332      O1336   1.358   1_565  S
O1334      H1338   0.992       .  S
O1336      H1337   0.992       .  S
C1339      C1340   1.412       .  A
C1339      C1344   1.404       .  A
C1340      H1345   1.080       .  S
C1340      C1341   1.401       .  A
C1341      C1342   1.405       .  A
C1341      O1346   1.372       .  S
C1342      C1343   1.414       .  A
C1343      H1347   1.083       .  S
C1343      C1344   1.401       .  A
C1344      O1348   1.371       .  S
O1346      H1350   0.992       .  S
O1348      H1349   0.992       .  S
C1351      C1352   1.401       .  A
C1351      C1356   1.411       .  A
C1352      H1357   1.084       .  S
C1352      C1353   1.389       .  A
C1353      C1354   1.411       .  A
C1353      O1358   1.374       .  S
C1354      C1355   1.406       .  A
C1355      H1359   1.083       .  S
C1355      C1356   1.405       .  A
C1356      O1360   1.370       .  S
O1358      H1362   0.992       .  S
O1360      H1361   0.992       .  S
C1363      C1364   1.408       .  A
C1363      C1368   1.421       .  A
C1364      H1369   1.083       .  S
C1364      C1365   1.411       .  A
C1365      C1366   1.409       .  A
C1365      O1370   1.370       .  S
C1366      C1367   1.390       .  A
C1367      H1371   1.085       .  S
C1367      C1368   1.378       .  A
C1368      O1372   1.374       .  S
O1370      H1374   0.992       .  S
O1372      H1373   0.993       .  S
C1375      C1376   1.408       .  A
C1375      C1380   1.407       .  A
C1376      H1381   1.082       .  S
C1376      C1377   1.401       .  A
C1377      C1378   1.409       .  A
C1377      O1382   1.371       .  S
C1378      C1379   1.410       .  A
C1379      H1383   1.079       .  S
C1379      C1380   1.407       .  A
C1380      O1384   1.372       .  S
O1382      H1386   0.992       .  S
O1384      H1385   0.992       .  S
