geometry optimzed in LAMMPS
_audit_creation_date              2020-11-30 
_audit_creation_method            'lammps2cif' 
_symmetry_space_group_name_H-M    'P1' 
_symmetry_Int_Tables_number       1 
_symmetry_cell_setting            triclinic 
loop_ 
_symmetry_equiv_pos_as_xyz 
  x,y,z 
_cell_length_a                    29.28797705 
_cell_length_b                    29.822352597186573 
_cell_length_c                    28.685783484560417 
_cell_angle_alpha                 90.08992218216031 
_cell_angle_beta                  90.10792744389447 
_cell_angle_gamma                 91.50177815234974 
loop_ 
_atom_site_label 
_atom_site_type_symbol 
_atom_site_fract_x 
_atom_site_fract_y 
_atom_site_fract_z 
_atom_site_charge 
O1          O  0.44133872  0.06113418  0.20932474    -0.72500
O2          O  0.44200078  0.96766239  0.29987742    -0.72700
O3          O  0.44141037  0.97114767  0.20613873    -0.72600
O4          O  0.44297015  0.05769465  0.30338668    -0.72600
O5          O  0.36885355  0.05741019  0.30311335    -0.72500
O6          O  0.36730141  0.96799801  0.20773822    -0.72500
O7          O  0.36786477  0.96768054  0.30085617    -0.72500
O8          O  0.36719009  0.05795061  0.20963556    -0.72700
V9          V  0.44055393  0.01442720  0.25468666     1.35200
V10         V  0.36930368  0.01285806  0.25532419     1.35200
C11         C  0.40376080  0.07495798  0.19365912     0.76800
C12         C  0.40459610  0.95187688  0.31574361     0.76800
C13         C  0.40430677  0.95435310  0.19061970     0.76700
C14         C  0.40628721  0.07236330  0.31998124     0.76700
C15         C  0.38817246  0.27655154  0.50563896     0.85800
C16         C  0.36291902  0.24051314  0.04682489    -0.54400
C17         C  0.39231616  0.20585313  0.04662850     0.08700
C18         C  0.44208690  0.20849052  0.50830086     0.19700
C19         C  0.43908529  0.29008606  0.50575737    -0.55200
C20         C  0.44801022  0.25114423  0.00342956     0.08800
C21         C  0.38244008  0.24378966  0.46400521    -0.54700
C22         C  0.41043479  0.20801511  0.46553514     0.09400
H23         H  0.33904783  0.24619321  0.07502315     0.13900
H24         H  0.46354470  0.17863427  0.50974388    -0.00400
H25         H  0.45141751  0.32476029  0.50505756     0.14200
H26         H  0.35916555  0.24768359  0.43513726     0.14000
C27         C  0.39121452  0.74685695  0.00548464     0.85800
C28         C  0.36228499  0.78235394  0.45933869    -0.54400
C29         C  0.39231163  0.81805223  0.45980408     0.08700
C30         C  0.44040553  0.82059861  0.00424079     0.19700
C31         C  0.44280362  0.73916047  0.00648246    -0.55200
C32         C  0.44637132  0.77520494  0.50392722     0.08800
C33         C  0.38243197  0.77808216  0.04717893    -0.54700
C34         C  0.40834467  0.81700089  0.04671377     0.09400
H35         H  0.33857735  0.77566171  0.43084319     0.13900
H36         H  0.46131198  0.85212224  0.00341896    -0.00400
H37         H  0.45705265  0.70597932  0.00723460     0.14200
H38         H  0.35851198  0.76955828  0.07484396     0.14000
O39         O  0.60912706  0.03560197  0.29956079    -0.72500
O40         O  0.61061989  0.94762472  0.20270294    -0.72700
O41         O  0.60858542  0.94569319  0.29634777    -0.72600
O42         O  0.60971645  0.03776741  0.20556061    -0.72600
O43         O  0.68380471  0.04090787  0.20664754    -0.72500
O44         O  0.68268345  0.94665319  0.29752099    -0.72500
O45         O  0.68473881  0.95065278  0.20385516    -0.72500
O46         O  0.68325889  0.03674384  0.30044710    -0.72700
V47         V  0.61096683  0.99176773  0.25101702     1.35200
V48         V  0.68218329  0.99373227  0.25208318     1.35200
C49         C  0.64630848  0.05077966  0.31681167     0.76800
C50         C  0.64825803  0.93401163  0.18697925     0.76800
C51         C  0.64507446  0.93029423  0.31258249     0.76700
C52         C  0.64655872  0.05511406  0.19031609     0.76700
C53         C  0.65462339  0.25474898  0.99589033     0.85800
C54         C  0.68233455  0.21924243  0.46385365    -0.54400
C55         C  0.65269894  0.18317319  0.46449898     0.08700
C56         C  0.60539911  0.18123793  0.00057096     0.19700
C57         C  0.60313859  0.26271131  0.99713743    -0.55200
C58         C  0.59606805  0.22829346  0.50256438     0.08800
C59         C  0.66432126  0.22644865  0.03953020    -0.54700
C60         C  0.63839968  0.18769020  0.04217364     0.09400
H61         H  0.70742266  0.22467016  0.43646286     0.13900
H62         H  0.58446384  0.14969176  0.00223545    -0.00400
H63         H  0.58899203  0.29590222  0.99595058     0.14200
H64         H  0.68895453  0.23660617  0.06610065     0.14000
C65         C  0.65248745  0.72385408  0.49732228     0.85800
C66         C  0.68590975  0.76338972  0.04293588    -0.54400
C67         C  0.65666265  0.79821998  0.04314829     0.08700
C68         C  0.60125630  0.79377826  0.49626036     0.19700
C69         C  0.60128009  0.71214915  0.49555385    -0.55200
C70         C  0.59796173  0.75137872  0.00574765     0.08800
C71         C  0.66121135  0.75477185  0.45527160    -0.54700
C72         C  0.63443689  0.79163237  0.45459976     0.09400
H73         H  0.71154307  0.75888282  0.06982738     0.13900
H74         H  0.58049524  0.82424966  0.49533160    -0.00400
H75         H  0.58755344  0.67795006  0.49495742     0.14200
H76         H  0.68621642  0.74795329  0.42843877     0.14000
O77         O  0.06046924  0.42300544  0.29394428    -0.72500
O78         O  0.97296384  0.41891375  0.19587823    -0.72700
O79         O  0.96890254  0.41910956  0.28942267    -0.72600
O80         O  0.06458072  0.42272378  0.20029122    -0.72600
O81         O  0.06602970  0.34998510  0.20072738    -0.72500
O82         O  0.96972549  0.34633601  0.28943703    -0.72500
O83         O  0.97446256  0.34615780  0.19623950    -0.72500
O84         O  0.06116571  0.35022414  0.29407570    -0.72700
V85         V  0.01674639  0.41953990  0.24488141     1.35200
V86         V  0.01784291  0.34961109  0.24510308     1.35200
C87         C  0.07571392  0.38717424  0.31074556     0.76800
C88         C  0.95871514  0.38173124  0.17944781     0.76800
C89         C  0.95300726  0.38214213  0.30473423     0.76700
C90         C  0.08166166  0.38698724  0.18521478     0.76700
C91         C  0.29155938  0.37809048  0.00130194     0.85800
C92         C  0.25312675  0.35746172  0.44413071    -0.54400
C93         C  0.21903398  0.38719135  0.44891084     0.08700
C94         C  0.21579063  0.42160860  0.99866318     0.19700
C95         C  0.29882997  0.42961850  0.99858304    -0.55200
C96         C  0.27251815  0.43844058  0.48974591     0.08800
C97         C  0.26094048  0.37042128  0.04422676    -0.54700
C98         C  0.22125480  0.39328228  0.04285515     0.09400
H99         H  0.25470666  0.33424472  0.41497960     0.13900
H100        H  0.18320023  0.43984149  0.99773413    -0.00400
H101        H  0.33222955  0.44614503  0.99695545     0.14200
H102        H  0.27012334  0.34912131  0.07327638     0.14000
C103        C  0.75256351  0.36236125  0.49996042     0.85800
C104        C  0.79059967  0.33737333  0.03210849    -0.54400
C105        C  0.82384695  0.37020037  0.03234142     0.08700
C106        C  0.82803057  0.40997119  0.49523277     0.19700
C107        C  0.74513713  0.41351774  0.49980798    -0.55200
C108        C  0.77367701  0.41783033  0.98651380     0.08800
C109        C  0.78086382  0.35364917  0.45573452    -0.54700
C110        C  0.82026254  0.37893500  0.45321996     0.09400
H111        H  0.78602951  0.31330531  0.06021684     0.13900
H112        H  0.86048687  0.42999886  0.49322660    -0.00400
H113        H  0.71169147  0.42833698  0.50022971     0.14200
H114        H  0.76993144  0.33056403  0.42833665     0.14000
O115        O  0.97646765  0.57540600  0.29720530    -0.72500
O116        O  0.06712249  0.57873645  0.20189715    -0.72700
O117        O  0.06821293  0.57879357  0.29590238    -0.72600
O118        O  0.97523502  0.57520392  0.20331522    -0.72600
O119        O  0.97341696  0.64793260  0.20447472    -0.72500
O120        O  0.06832012  0.65159408  0.29469138    -0.72500
O121        O  0.06480161  0.65143368  0.20147298    -0.72500
O122        O  0.97694981  0.64821672  0.29755911    -0.72700
V123        V  0.02176159  0.57836781  0.24955237     1.35200
V124        V  0.02090708  0.64830205  0.24954545     1.35200
C125        C  0.96139428  0.61153454  0.31367848     0.76800
C126        C  0.08124598  0.61591053  0.18534463     0.76800
C127        C  0.08410890  0.61586793  0.31113935     0.76700
C128        C  0.95825743  0.61099996  0.18829209     0.76700
C129        C  0.28915357  0.64175416  0.50116862     0.85800
C130        C  0.25305585  0.66363871  0.04402529    -0.54400
C131        C  0.22037284  0.63025134  0.04321272     0.08700
C132        C  0.21399690  0.59347675  0.50221056     0.19700
C133        C  0.29697698  0.59073112  0.50233586    -0.55200
C134        C  0.27259307  0.58190613  0.00113750     0.08800
C135        C  0.25839159  0.64863517  0.45828857    -0.54700
C136        C  0.21903353  0.62299432  0.45870960     0.09400
H137        H  0.25565578  0.68847834  0.07171535     0.13900
H138        H  0.18174165  0.57310970  0.50258585    -0.00400
H139        H  0.33053192  0.57619469  0.50349848     0.14200
H140        H  0.26775906  0.67075083  0.42963290     0.14000
C141        C  0.75186640  0.62164889  0.99981482     0.85800
C142        C  0.78968035  0.64802697  0.45682816    -0.54400
C143        C  0.82269345  0.61651163  0.45681484     0.08700
C144        C  0.82743780  0.57771165  0.99923553     0.19700
C145        C  0.74444519  0.56986673  0.99859173    -0.55200
C146        C  0.77199983  0.56664831  0.50215132     0.08800
C147        C  0.78247993  0.63042125  0.04273001    -0.54700
C148        C  0.82196432  0.60723704  0.04246341     0.09400
H149        H  0.78564480  0.67215023  0.42889805     0.13900
H150        H  0.86004202  0.55949079  0.99880105    -0.00400
H151        H  0.71105500  0.55322879  0.99892999     0.14200
H152        H  0.77304684  0.65223584  0.07130005     0.14000
C153        C  0.87400092  0.65390873  0.39827394    -0.14000
C154        C  0.85830054  0.61435073  0.42011430     0.08100
C155        C  0.87740996  0.57337448  0.40717777    -0.14000
C156        C  0.91105853  0.57206416  0.37255731    -0.14000
C157        C  0.92626136  0.61176285  0.35055289     0.08100
C158        C  0.90745701  0.65262902  0.36396174    -0.14000
H159        H  0.86098651  0.68620015  0.40815376     0.12100
H160        H  0.86593901  0.54229864  0.42313640     0.12100
H161        H  0.92509494  0.54009568  0.36300609     0.12100
H162        H  0.91856421  0.68386178  0.34787843     0.12100
C163        C  0.86694984  0.64849085  0.10424349    -0.14000
C164        C  0.85540984  0.60821439  0.08122837     0.08100
C165        C  0.87666166  0.56860714  0.09477268    -0.14000
C166        C  0.90949242  0.56935933  0.13013217    -0.14000
C167        C  0.92198783  0.60982899  0.15238650     0.08100
C168        C  0.90012861  0.64934375  0.13935676    -0.14000
H169        H  0.85115457  0.67949311  0.09428844     0.12100
H170        H  0.86774242  0.53693004  0.07820114     0.12100
H171        H  0.92553716  0.53834945  0.13959627     0.12100
H172        H  0.90892592  0.68100445  0.15603924     0.12100
C173        C  0.13071017  0.57858542  0.37234038    -0.14000
C174        C  0.11973245  0.61750913  0.34772585     0.08100
C175        C  0.14238939  0.65822330  0.35911925    -0.14000
C176        C  0.17512768  0.66003028  0.39468319    -0.14000
C177        C  0.18549918  0.62125028  0.41982816     0.08100
C178        C  0.16316718  0.58045867  0.40807233    -0.14000
H179        H  0.11383961  0.54674108  0.36434361     0.12100
H180        H  0.13467366  0.68875708  0.34066092     0.12100
H181        H  0.19160279  0.69194002  0.40316529     0.12100
H182        H  0.17108258  0.54977416  0.42613495     0.12100
C183        C  0.16888911  0.58349197  0.09474320    -0.14000
C184        C  0.18428670  0.62587780  0.07912330     0.08100
C185        C  0.16496248  0.66444573  0.09790188    -0.14000
C186        C  0.13133235  0.66086903  0.13202781    -0.14000
C187        C  0.11625506  0.61862673  0.14833740     0.08100
C188        C  0.13521840  0.57987514  0.12926295    -0.14000
H189        H  0.18349199  0.55324359  0.08095673     0.12100
H190        H  0.17552278  0.69750446  0.08585056     0.12100
H191        H  0.11724267  0.69138372  0.14576463     0.12100
H192        H  0.12424474  0.54690577  0.14117605     0.12100
C193        C  0.76145436  0.46613498  0.98601869    -0.17100
C194        C  0.76019680  0.51782620  0.50454543    -0.32300
H195        H  0.72770728  0.47526492  0.97421641     0.11900
H196        H  0.72675395  0.50712848  0.51720635     0.12500
C197        C  0.28290150  0.48746499  0.49098108    -0.17100
C198        C  0.28420173  0.53342484  0.00226967    -0.32300
H199        H  0.21945594  0.51046432  0.97987992     0.11900
H200        H  0.21954554  0.50419149  0.51924255     0.12500
C201        C  0.90612446  0.33767219  0.12756191    -0.14000
C202        C  0.92439946  0.37945739  0.14175458     0.08100
C203        C  0.90956964  0.41851282  0.11963934    -0.14000
C204        C  0.87703969  0.41568868  0.08388080    -0.14000
C205        C  0.85864302  0.37383300  0.06990175     0.08100
C206        C  0.87371933  0.33488381  0.09205450    -0.14000
H207        H  0.91690384  0.30695792  0.14386409     0.12100
H208        H  0.92311302  0.45118323  0.12992939     0.12100
H209        H  0.86584989  0.44626260  0.06781750     0.12100
H210        H  0.86103029  0.30198914  0.08151422     0.12100
C211        C  0.90203856  0.42112324  0.36055337    -0.14000
C212        C  0.91650819  0.38102527  0.34031520     0.08100
C213        C  0.89689421  0.34005541  0.35558471    -0.14000
C214        C  0.86437282  0.33922627  0.39131639    -0.14000
C215        C  0.85144741  0.37928508  0.41268215     0.08100
C216        C  0.87000886  0.42022476  0.39648062    -0.14000
H217        H  0.91619527  0.45322174  0.34932391     0.12100
H218        H  0.90722273  0.30862471  0.34046047     0.12100
H219        H  0.85051376  0.30726878  0.40332187     0.12100
H220        H  0.85991525  0.45165283  0.41178078     0.12100
C221        C  0.16224864  0.34742502  0.39773667    -0.14000
C222        C  0.18000379  0.38794509  0.41607785     0.08100
C223        C  0.16133944  0.42852739  0.40165453    -0.14000
C224        C  0.12675735  0.42854463  0.36782181    -0.14000
C225        C  0.11019763  0.38792735  0.34836139     0.08100
C226        C  0.12780102  0.34740901  0.36429588    -0.14000
H227        H  0.17522191  0.31556525  0.40909079     0.12100
H228        H  0.17449839  0.46018689  0.41531896     0.12100
H229        H  0.11357500  0.46025923  0.35632505     0.12100
H230        H  0.11547717  0.31553601  0.35038154     0.12100
C231        C  0.13905919  0.34894510  0.13484318    -0.14000
C232        C  0.11859327  0.38853638  0.14999140     0.08100
C233        C  0.13317766  0.42969025  0.13050107    -0.14000
C234        C  0.16672884  0.43113705  0.09590726    -0.14000
C235        C  0.18683023  0.39156729  0.08059293     0.08100
C236        C  0.17309922  0.35050160  0.10066366    -0.14000
H237        H  0.12856487  0.31673392  0.14917304     0.12100
H238        H  0.11822697  0.46077070  0.14155519     0.12100
H239        H  0.17715953  0.46324048  0.08125383     0.12100
H240        H  0.18794160  0.31951966  0.08909699     0.12100
C241        C  0.68135680  0.68265668  0.49808980    -0.17100
C242        C  0.70938734  0.65007226  0.00063212    -0.32300
H243        H  0.74945562  0.70909473  0.00097166     0.11900
H244        H  0.74293824  0.71949736  0.49965221     0.12500
C245        C  0.68274862  0.29763561  0.99278121    -0.17100
C246        C  0.70959588  0.33280739  0.50232991    -0.32300
H247        H  0.66538351  0.32920854  0.99331460     0.11900
H248        H  0.67629792  0.34783615  0.50284367     0.12500
C249        C  0.69273574  0.88481864  0.13382406    -0.14000
C250        C  0.65023369  0.89926217  0.15017496     0.08100
C251        C  0.61009328  0.87974219  0.13148358    -0.14000
C252        C  0.61242692  0.84672938  0.09698366    -0.14000
C253        C  0.65488567  0.83242955  0.08062681     0.08100
C254        C  0.69503301  0.85158128  0.09953175    -0.14000
H255        H  0.72433125  0.89922366  0.14753222     0.12100
H256        H  0.57689765  0.88990990  0.14353913     0.12100
H257        H  0.58090957  0.83199531  0.08344945     0.12100
H258        H  0.72813258  0.84141132  0.08721716     0.12100
C259        C  0.68283614  0.87534651  0.36617558    -0.14000
C260        C  0.64296405  0.89431008  0.34844269     0.08100
C261        C  0.60038225  0.87878669  0.36563260    -0.14000
C262        C  0.59774345  0.84556492  0.39999653    -0.14000
C263        C  0.63753699  0.82660292  0.41764749     0.08100
C264        C  0.68012919  0.84166533  0.40024411    -0.14000
H265        H  0.71611230  0.88659419  0.35380731     0.12100
H266        H  0.56892275  0.89250804  0.35270429     0.12100
H267        H  0.56445815  0.83431473  0.41238422     0.12100
H268        H  0.71140070  0.82794749  0.41362165     0.12100
C269        C  0.68937328  0.10341469  0.36961657    -0.14000
C270        C  0.64739924  0.08400351  0.35515830     0.08100
C271        C  0.60722349  0.09652286  0.37779790    -0.14000
C272        C  0.60900845  0.12830039  0.41375776    -0.14000
C273        C  0.65096995  0.14824132  0.42758220     0.08100
C274        C  0.69112408  0.13520476  0.40533560    -0.14000
H275        H  0.72101474  0.09426399  0.35308463     0.12100
H276        H  0.57443933  0.08196870  0.36756898     0.12100
H277        H  0.57735767  0.13804233  0.42982079     0.12100
H278        H  0.72401609  0.14938568  0.41570586     0.12100
C279        C  0.68510779  0.11299807  0.13819771    -0.14000
C280        C  0.64518837  0.09048112  0.15376247     0.08100
C281        C  0.60318781  0.10141989  0.13331831    -0.14000
C282        C  0.60117787  0.13316507  0.09759492    -0.14000
C283        C  0.64102969  0.15520750  0.08152346     0.08100
C284        C  0.68300392  0.14522890  0.10261525    -0.14000
H285        H  0.71794772  0.10546971  0.15324966     0.12100
H286        H  0.57167469  0.08500187  0.14455036     0.12100
H287        H  0.56822531  0.14067132  0.08276510     0.12100
H288        H  0.71436166  0.16152774  0.09080454     0.12100
C289        C  0.33214826  0.67134993  0.50099904    -0.17100
C290        C  0.36314809  0.70357725  0.00571335    -0.32300
H291        H  0.36541264  0.65626506  0.50158086     0.11900
H292        H  0.38077986  0.67215123  0.00694399     0.12500
C293        C  0.49668928  0.77599174  0.50709828    -0.17100
C294        C  0.54729014  0.74561314  0.00791885    -0.32300
H295        H  0.53269796  0.81452020  0.00255001     0.11900
H296        H  0.50850316  0.71080551  0.48311692     0.12500
C297        C  0.35718330  0.31658322  0.50768224    -0.17100
C298        C  0.33456996  0.35063966  0.00267938    -0.32300
H299        H  0.29568751  0.29108477  0.00570048     0.11900
H300        H  0.32044581  0.30394826  0.44561705     0.12500
C301        C  0.49873633  0.25693703  0.00228193    -0.17100
C302        C  0.54580132  0.22733014  0.49818744    -0.32300
H303        H  0.51288007  0.29096354  0.00221950     0.11900
H304        H  0.53113738  0.19504582  0.48847371     0.12500
C305        C  0.36022861  0.89619851  0.36265370    -0.14000
C306        C  0.40270464  0.91611257  0.35098960     0.08100
C307        C  0.44216738  0.90239511  0.37413844    -0.14000
C308        C  0.43888614  0.87005295  0.40925666    -0.14000
C309        C  0.39615400  0.85097123  0.42153031     0.08100
C310        C  0.35699054  0.86396801  0.39752927    -0.14000
H311        H  0.32920896  0.90592342  0.34519120     0.12100
H312        H  0.47532720  0.91705455  0.36559847     0.12100
H313        H  0.46980320  0.85984695  0.42655875     0.12100
H314        H  0.32362432  0.85008669  0.40648355     0.12100
C315        C  0.36497944  0.89430552  0.14216653    -0.14000
C316        C  0.40468506  0.91949055  0.15362248     0.08100
C317        C  0.44540035  0.91052061  0.12990026    -0.14000
C318        C  0.44643232  0.87729641  0.09549763    -0.14000
C319        C  0.40681158  0.85203007  0.08390766     0.08100
C320        C  0.36606335  0.86081665  0.10780964    -0.14000
H321        H  0.33312820  0.90028707  0.15996639     0.12100
H322        H  0.47665196  0.92917301  0.13798189     0.12100
H323        H  0.47866874  0.87091000  0.07867464     0.12100
H324        H  0.33482944  0.84227952  0.09951380     0.08900
C325        C  0.36685446  0.12589023  0.37303056    -0.14000
C326        C  0.40729452  0.10612607  0.35808761     0.08100
C327        C  0.44873138  0.11910747  0.37979190    -0.14000
C328        C  0.44970514  0.15159029  0.41514686    -0.14000
C329        C  0.40936868  0.17204289  0.42935715     0.08100
C330        C  0.36788181  0.15847719  0.40816242    -0.14000
H331        H  0.33436189  0.11644080  0.35729191     0.12100
H332        H  0.48050796  0.10436523  0.36925274     0.12100
H333        H  0.48222726  0.16146154  0.43042559     0.12100
H334        H  0.33602808  0.17288531  0.41891594     0.12100
C335        C  0.44126494  0.12509884  0.13418844    -0.14000
C336        C  0.40167142  0.10950512  0.15708550     0.08100
C337        C  0.35910606  0.12616484  0.14375194    -0.14000
C338        C  0.35608902  0.15761399  0.10811024    -0.14000
C339        C  0.39553328  0.17295009  0.08493205     0.08100
C340        C  0.43818990  0.15651756  0.09829569    -0.14000
H341        H  0.47447147  0.11277317  0.14370790     0.12100
H342        H  0.32793182  0.11466704  0.16067214     0.12100
H343        H  0.32277197  0.16931647  0.09812831     0.12100
H344        H  0.46925961  0.16831996  0.08141728     0.12100
O345        O  0.43978978  0.05707617  0.70777695    -0.72500
O346        O  0.43952145  0.96766352  0.80128253    -0.72700
O347        O  0.43896683  0.96689732  0.70752234    -0.72600
O348        O  0.43890264  0.05788057  0.80133963    -0.72600
O349        O  0.36478119  0.05398783  0.80186287    -0.72500
O350        O  0.36485074  0.96710228  0.70659769    -0.72500
O351        O  0.36542351  0.96387475  0.79991123    -0.72500
O352        O  0.36568607  0.05721701  0.70869214    -0.72700
V353        V  0.43789250  0.01232026  0.75448746     1.35200
V354        V  0.36665206  0.01056095  0.75426448     1.35200
C355        C  0.40308774  0.07295891  0.69263020     0.76800
C356        C  0.40273942  0.95009236  0.81637653     0.76800
C357        C  0.40147214  0.95167585  0.69101897     0.76700
C358        C  0.40140219  0.07140410  0.81745803     0.76700
C359        C  0.36744505  0.27144623  0.00435945     0.85800
C360        C  0.38170938  0.24688821  0.54886405    -0.54400
C361        C  0.40975991  0.21107307  0.55049425     0.08700
C362        C  0.42317487  0.20501563  0.00372387     0.19700
C363        C  0.41855879  0.28646580  0.00382002    -0.55200
C364        C  0.46769211  0.25468237  0.50677904     0.08800
C365        C  0.36182717  0.24030901  0.96199189    -0.54700
C366        C  0.39135923  0.20580564  0.96149855     0.09400
H367        H  0.35704452  0.25397514  0.57594272     0.13900
H368        H  0.44418620  0.17488168  0.00337960    -0.00400
H369        H  0.43050448  0.32120435  0.00365197     0.14200
H370        H  0.33722360  0.24573420  0.93431445     0.14000
C371        C  0.36594404  0.75166128  0.50185978     0.85800
C372        C  0.38341795  0.77590477  0.96205142    -0.54400
C373        C  0.40914321  0.81477587  0.96131211     0.08700
C374        C  0.42278041  0.82013756  0.50317120     0.19700
C375        C  0.41689483  0.73842312  0.50306137    -0.55200
C376        C  0.46868340  0.77785687  0.00579826     0.08800
C377        C  0.36043923  0.78277833  0.54412725    -0.54700
C378        C  0.39056464  0.81844038  0.54499938     0.09400
H379        H  0.35996268  0.76619398  0.93423359     0.13900
H380        H  0.44653847  0.84975332  0.50365706    -0.00400
H381        H  0.42843688  0.70421000  0.50407990     0.14200
H382        H  0.33554143  0.77638253  0.57150331     0.14000
O383        O  0.60333054  0.03035260  0.79774542    -0.72500
O384        O  0.60214103  0.94278697  0.70154386    -0.72700
O385        O  0.60290479  0.94029457  0.79550024    -0.72600
O386        O  0.60357773  0.03317822  0.70434871    -0.72600
O387        O  0.67772647  0.03416242  0.70502227    -0.72500
O388        O  0.67705834  0.94157530  0.79426466    -0.72500
O389        O  0.67625191  0.94389866  0.70088369    -0.72500
O390        O  0.67745600  0.03168203  0.79821823    -0.72700
V391        V  0.60440878  0.98661762  0.74972542     1.35200
V392        V  0.67565355  0.98776702  0.74957572     1.35200
C393        C  0.64035864  0.04621620  0.81433778     0.76800
C394        C  0.63878425  0.92818938  0.68473759     0.76800
C395        C  0.64022869  0.92524001  0.81042723     0.76700
C396        C  0.64107285  0.04994600  0.68977802     0.76700
C397        C  0.67629605  0.25225655  0.50441962     0.85800
C398        C  0.66158434  0.22289339  0.95452747    -0.54400
C399        C  0.63593900  0.18412846  0.95695678     0.08700
C400        C  0.61992442  0.18344363  0.50597885     0.19700
C401        C  0.62534923  0.26515736  0.50195064    -0.55200
C402        C  0.57720168  0.22414167  0.99962327     0.08800
C403        C  0.67992888  0.22352469  0.54849450    -0.54700
C404        C  0.65013387  0.18766734  0.54945733     0.09400
H405        H  0.68456597  0.23053538  0.92577549     0.13900
H406        H  0.59631200  0.15372414  0.50695283    -0.00400
H407        H  0.61369003  0.29919725  0.49877530     0.14200
H408        H  0.70387111  0.23111706  0.57656861     0.14000
C409        C  0.67812758  0.73031114  0.00230125     0.85800
C410        C  0.65884566  0.75441729  0.54023220    -0.54400
C411        C  0.63221058  0.79142398  0.53974909     0.08700
C412        C  0.62300701  0.79731633  0.00231388     0.19700
C413        C  0.62708012  0.71587405  0.00584741    -0.55200
C414        C  0.57410648  0.74839421  0.49534458     0.08800
C415        C  0.68095727  0.75933069  0.95825527    -0.54700
C416        C  0.65194251  0.79441283  0.95800592     0.09400
H417        H  0.68244404  0.74733223  0.56835751     0.13900
H418        H  0.60206366  0.82741875  0.00266078    -0.00400
H419        H  0.61489268  0.68130094  0.00803820     0.14200
H420        H  0.70349205  0.75189552  0.92939612     0.14000
O421        O  0.07351394  0.41529600  0.79086139    -0.72500
O422        O  0.98379242  0.41399513  0.69531320    -0.72700
O423        O  0.98196530  0.41280683  0.78910586    -0.72600
O424        O  0.07559484  0.41614445  0.69714198    -0.72600
O425        O  0.07496745  0.34336055  0.69582354    -0.72500
O426        O  0.98274590  0.34005106  0.78864140    -0.72500
O427        O  0.98293786  0.34120404  0.69483997    -0.72500
O428        O  0.07452635  0.34256284  0.78975949    -0.72700
V429        V  0.02873627  0.41311701  0.74305417     1.35200
V430        V  0.02880270  0.34319017  0.74222767     1.35200
C431        C  0.08926463  0.37936738  0.80687795     0.76800
C432        C  0.96769591  0.37750188  0.67891741     0.76800
C433        C  0.96668975  0.37577108  0.80492075     0.76700
C434        C  0.09116527  0.38024535  0.68064802     0.76700
C435        C  0.28838074  0.35910921  0.48351746     0.85800
C436        C  0.26080332  0.36608817  0.95914804    -0.54400
C437        C  0.22113568  0.38901577  0.95770715     0.08700
C438        C  0.22388368  0.41675441  0.49264896     0.19700
C439        C  0.30615858  0.40792460  0.48464719    -0.55200
C440        C  0.25859724  0.45224102  0.99696762     0.08800
C441        C  0.26015371  0.35282152  0.52828660    -0.54700
C442        C  0.22626706  0.38319130  0.53326387     0.09400
H443        H  0.27028037  0.34242849  0.93224545     0.13900
H444        H  0.19524268  0.44000599  0.49573464    -0.00400
H445        H  0.34207684  0.41745605  0.48160561     0.14200
H446        H  0.26636502  0.32653874  0.55349715     0.14000
C447        C  0.76043175  0.33673062  0.98867019     0.85800
C448        C  0.78560470  0.35469954  0.54086254    -0.54400
C449        C  0.82522515  0.37967868  0.53836208     0.08700
C450        C  0.82308189  0.40027447  0.98874359     0.19700
C451        C  0.74095893  0.38428490  0.98591330    -0.55200
C452        C  0.78523448  0.43823405  0.49700768     0.08800
C453        C  0.79364755  0.33421652  0.94771644    -0.54700
C454        C  0.82669313  0.36734269  0.94749068     0.09400
H455        H  0.77797236  0.33191806  0.56947636     0.13900
H456        H  0.85088319  0.42609096  0.98836999    -0.00400
H457        H  0.70495062  0.39151969  0.98418089     0.14200
H458        H  0.79117955  0.30815079  0.92127182     0.14000
O459        O  0.97533544  0.57933220  0.79696935    -0.72500
O460        O  0.06875371  0.58385460  0.70573465    -0.72700
O461        O  0.06719857  0.58328800  0.79931998    -0.72600
O462        O  0.97726226  0.57999990  0.70313544    -0.72600
O463        O  0.97800784  0.65280642  0.70260912    -0.72500
O464        O  0.06418191  0.65592747  0.80107663    -0.72500
O465        O  0.06926437  0.65665599  0.70791201    -0.72500
O466        O  0.97272337  0.65201489  0.79591915    -0.72700
V467        V  0.02210166  0.58298313  0.75135304     1.35200
V468        V  0.02101521  0.65290185  0.75190527     1.35200
C469        C  0.95788295  0.61493093  0.81187465     0.76800
C470        C  0.08502348  0.62097416  0.69130787     0.76800
C471        C  0.08107569  0.62032558  0.81653280     0.76700
C472        C  0.96280973  0.61606887  0.68600977     0.76700
C473        C  0.28555479  0.66331657  0.00239016     0.85800
C474        C  0.25842213  0.65062733  0.54354151    -0.54400
C475        C  0.21911055  0.62509076  0.54415430     0.08700
C476        C  0.22328845  0.59935138  0.00050901     0.19700
C477        C  0.30529993  0.61563308  0.00236380    -0.55200
C478        C  0.25702456  0.56567473  0.50307335     0.08800
C479        C  0.25434902  0.66439506  0.95948556    -0.54700
C480        C  0.22153539  0.63107831  0.95843627     0.09400
H481        H  0.26788474  0.67387943  0.57130901     0.13900
H482        H  0.19531613  0.57374603  0.00025761    -0.00400
H483        H  0.34138206  0.60854987  0.00331748     0.14200
H484        H  0.25755414  0.68992314  0.93262637     0.14000
C485        C  0.75915229  0.64717372  0.50006043     0.85800
C486        C  0.78263150  0.63200308  0.95754355    -0.54400
C487        C  0.82203854  0.60869515  0.95719309     0.08700
C488        C  0.82139142  0.58638122  0.50024925     0.19700
C489        C  0.73938753  0.59863747  0.50241559    -0.55200
C490        C  0.78479968  0.54714574  0.99851276     0.08800
C491        C  0.79226729  0.65083419  0.54131854    -0.54700
C492        C  0.82497458  0.61907303  0.54156491     0.09400
H493        H  0.77338122  0.65479484  0.92978271     0.13900
H494        H  0.84915710  0.56200245  0.50099384    -0.00400
H495        H  0.70337054  0.58964678  0.50425010     0.14200
H496        H  0.78999228  0.67659103  0.56796697     0.14000
C497        C  0.86926364  0.65164490  0.89895318    -0.14000
C498        C  0.85531272  0.61051298  0.91857451     0.08100
C499        C  0.87399295  0.57072792  0.90186284    -0.14000
C500        C  0.90667162  0.57206411  0.86650877    -0.14000
C501        C  0.92158549  0.61330253  0.84755163     0.08100
C502        C  0.90232136  0.65306443  0.86387991    -0.14000
H503        H  0.85541949  0.68272260  0.91155319     0.12100
H504        H  0.86317562  0.53853381  0.91604416     0.12100
H505        H  0.92066038  0.54084510  0.85446080     0.12100
H506        H  0.91314900  0.68532530  0.84991625     0.12100
C507        C  0.88056275  0.65773488  0.59528113    -0.14000
C508        C  0.86146292  0.61764536  0.57739577     0.08100
C509        C  0.87728349  0.57653427  0.59405469    -0.14000
C510        C  0.91066826  0.57568724  0.62907896    -0.14000
C511        C  0.92885843  0.61596795  0.64776926     0.08100
C512        C  0.91386303  0.65691540  0.62998612    -0.14000
H513        H  0.86987469  0.68988742  0.58229266     0.12100
H514        H  0.86304342  0.54509559  0.58092877     0.12100
H515        H  0.92176729  0.54360896  0.64191548     0.12100
H516        H  0.92758308  0.68853188  0.64319022     0.12100
C517        C  0.13645658  0.58334078  0.87032459    -0.14000
C518        C  0.11658593  0.62248561  0.85328145     0.08100
C519        C  0.13159709  0.66428499  0.87105168    -0.14000
C520        C  0.16585979  0.66697111  0.90486227    -0.14000
C521        C  0.18574783  0.62792634  0.92188578     0.08100
C522        C  0.17062227  0.58605690  0.90450324    -0.14000
H523        H  0.12574796  0.55066868  0.85714257     0.12100
H524        H  0.11692271  0.69506421  0.85876030     0.12100
H525        H  0.17631640  0.69964408  0.91822980     0.12100
H526        H  0.18567437  0.55549406  0.91679127     0.12100
C527        C  0.16458502  0.58392209  0.59640635    -0.14000
C528        C  0.18616224  0.62455763  0.58326906     0.08100
C529        C  0.17562387  0.66403362  0.60726656    -0.14000
C530        C  0.14304648  0.66297610  0.64289465    -0.14000
C531        C  0.12085286  0.62235196  0.65526780     0.08100
C532        C  0.13231795  0.58282086  0.63199198    -0.14000
H533        H  0.17285455  0.55271878  0.57949043     0.12100
H534        H  0.19173995  0.69580944  0.59777544     0.12100
H535        H  0.13495922  0.69393203  0.66045296     0.12100
H536        H  0.11595423  0.55098186  0.64088676     0.12100
C537        C  0.79067443  0.48735206  0.49201208    -0.17100
C538        C  0.79130619  0.49807486  0.00032033    -0.32300
H539        H  0.82330472  0.49840720  0.47819736     0.11900
H540        H  0.82445570  0.48846429  0.01278499     0.12500
C541        C  0.25294507  0.50120779  0.99168734    -0.17100
C542        C  0.25209128  0.51643843  0.50613791    -0.32300
H543        H  0.31581621  0.49975051  0.47828066     0.11900
H544        H  0.31826702  0.52433480  0.01310883     0.12500
C545        C  0.90997819  0.33746906  0.62757876    -0.14000
C546        C  0.93169864  0.37763470  0.64240774     0.08100
C547        C  0.91812920  0.41830903  0.62255631    -0.14000
C548        C  0.88372991  0.41879689  0.58869199    -0.14000
C549        C  0.86173593  0.37872966  0.57430096     0.08100
C550        C  0.87511894  0.33804760  0.59407492    -0.14000
H551        H  0.91966692  0.30560748  0.64214282     0.12100
H552        H  0.93406185  0.44986261  0.63323773     0.12100
H553        H  0.87376789  0.45067704  0.57433917     0.12100
H554        H  0.85900399  0.30665548  0.58317015     0.12100
C555        C  0.91356975  0.41352564  0.86049653    -0.14000
C556        C  0.93122043  0.37399327  0.84170542     0.08100
C557        C  0.91492361  0.33242239  0.85870032    -0.14000
C558        C  0.88140506  0.33036685  0.89324693    -0.14000
C559        C  0.86331597  0.36982959  0.91167006     0.08100
C560        C  0.88003775  0.41145112  0.89525594    -0.14000
H561        H  0.92551671  0.44607473  0.84819912     0.12100
H562        H  0.92806442  0.30134900  0.84528408     0.12100
H563        H  0.86992537  0.29777343  0.90581974     0.12100
H564        H  0.86651322  0.44240368  0.90851443     0.12100
C565        C  0.17504541  0.34406341  0.89885773    -0.14000
C566        C  0.18786266  0.38566192  0.91868492     0.08100
C567        C  0.16857949  0.42476588  0.90115766    -0.14000
C568        C  0.13703341  0.42250384  0.86465184    -0.14000
C569        C  0.12362299  0.38099026  0.84497838     0.08100
C570        C  0.14294170  0.34170364  0.86249361    -0.14000
H571        H  0.18927919  0.31339380  0.91200386     0.12100
H572        H  0.17835775  0.45732216  0.91528258     0.12100
H573        H  0.12297146  0.45343168  0.85197296     0.12100
H574        H  0.13322137  0.30921834  0.84815924     0.12100
C575        C  0.14373297  0.34092351  0.62617295    -0.14000
C576        C  0.12704910  0.38116398  0.64424857     0.08100
C577        C  0.14442870  0.42210002  0.62660178    -0.14000
C578        C  0.17711529  0.42270883  0.59106843    -0.14000
C579        C  0.19330900  0.38247590  0.57261212     0.08100
C580        C  0.17655859  0.34157370  0.59082536    -0.14000
H581        H  0.13102346  0.30881788  0.63896760     0.12100
H582        H  0.13248766  0.45368417  0.63995105     0.12100
H583        H  0.18986506  0.45473104  0.57824307     0.12100
H584        H  0.18793403  0.31001058  0.57690776     0.12100
C585        C  0.71471838  0.69522566  0.00158613    -0.17100
C586        C  0.72705404  0.68611457  0.49955275    -0.32300
H587        H  0.66416561  0.65011793  0.49717790     0.11900
H588        H  0.67574734  0.63403766  0.00044547     0.12500
C589        C  0.71386832  0.28799527  0.50342238    -0.17100
C590        C  0.72830752  0.29643053  0.98981453    -0.32300
H591        H  0.74827334  0.27504851  0.50350322     0.11900
H592        H  0.74420575  0.26386263  0.99005371     0.12500
C593        C  0.67760332  0.87336768  0.63196189    -0.14000
C594        C  0.63742788  0.89345983  0.64737952     0.08100
C595        C  0.59557244  0.87964555  0.62705783    -0.14000
C596        C  0.59396321  0.84676860  0.59210335    -0.14000
C597        C  0.63403712  0.82645798  0.57695688     0.08100
C598        C  0.67588979  0.84008986  0.59734032    -0.14000
H599        H  0.71037861  0.88319724  0.64682521     0.12100
H600        H  0.56392234  0.89428268  0.63815229     0.12100
H601        H  0.56119286  0.83670462  0.57756603     0.12100
H602        H  0.70745156  0.82544572  0.58602133     0.12100
C603        C  0.68295111  0.86834424  0.85497943    -0.14000
C604        C  0.64173331  0.88991484  0.84626322     0.08100
C605        C  0.60322636  0.87862774  0.87322154    -0.14000
C606        C  0.60632049  0.84705584  0.90902235    -0.14000
C607        C  0.64797569  0.82630070  0.91853120     0.08100
C608        C  0.68605445  0.83692464  0.89066348    -0.14000
H609        H  0.71317979  0.87621881  0.83456236     0.12100
H610        H  0.57100900  0.89469116  0.86716721     0.12100
H611        H  0.57594145  0.83884703  0.92897408     0.12100
H612        H  0.71871193  0.82197491  0.89717055     0.12100
C613        C  0.68037006  0.10208403  0.86728066    -0.14000
C614        C  0.63972570  0.08108339  0.85134736     0.08100
C615        C  0.59796607  0.09419041  0.87067866    -0.14000
C616        C  0.59687278  0.12729387  0.90524511    -0.14000
C617        C  0.63740894  0.14849829  0.92079671     0.08100
C618        C  0.67918495  0.13566004  0.90146159    -0.14000
H619        H  0.71304402  0.09279468  0.85311588     0.12100
H620        H  0.56599118  0.07886127  0.85906851     0.12100
H621        H  0.56420462  0.13692502  0.91919621     0.12100
H622        H  0.71098536  0.15127693  0.91318759     0.12100
C623        C  0.68515368  0.10609731  0.64245589    -0.14000
C624        C  0.64274648  0.08706692  0.65588150     0.08100
C625        C  0.60257883  0.10353702  0.63628677    -0.14000
C626        C  0.60496309  0.13721860  0.60252005    -0.14000
C627        C  0.64747582  0.15511571  0.58813037     0.08100
C628        C  0.68747970  0.13991429  0.60900481    -0.14000
H629        H  0.71671474  0.09435523  0.65725122     0.12100
H630        H  0.56944574  0.08988675  0.64642568     0.12100
H631        H  0.57358072  0.14906998  0.58742771     0.12100
H632        H  0.72064500  0.15301999  0.59826681     0.12100
C633        C  0.31743126  0.70407531  0.00362672    -0.17100
C634        C  0.32808313  0.71617223  0.50090174    -0.32300
H635        H  0.30121031  0.73647017  0.00272638     0.11900
H636        H  0.29374668  0.72927555  0.50026120     0.12500
C637        C  0.51918925  0.78076119  0.00547329    -0.17100
C638        C  0.52355098  0.74271253  0.49429583    -0.32300
H639        H  0.51201766  0.80739174  0.51878938     0.11900
H640        H  0.53328603  0.71176995  0.01098301     0.12500
C641        C  0.33014964  0.30560970  0.00465476    -0.17100
C642        C  0.32412760  0.32440151  0.47647010    -0.32300
H643        H  0.36023010  0.33829786  0.53807085     0.11900
H644        H  0.36791672  0.36722569  0.00135396     0.12500
C645        C  0.51827744  0.26132863  0.50738984    -0.17100
C646        C  0.52673981  0.22161937  0.00118068    -0.32300
H647        H  0.53275905  0.29417038  0.51618446     0.11900
H648        H  0.51311980  0.18763611  0.00149192     0.12500
C649        C  0.36418574  0.89063381  0.86585960    -0.14000
C650        C  0.40400138  0.91457414  0.85252022     0.08100
C651        C  0.44557989  0.90440664  0.87424164    -0.14000
C652        C  0.44718531  0.87177012  0.90909496    -0.14000
C653        C  0.40734146  0.84822451  0.92289963     0.08100
C654        C  0.36587671  0.85764176  0.90055047    -0.14000
H655        H  0.33170607  0.89752333  0.84963011     0.12100
H656        H  0.47697588  0.92198747  0.86459832     0.12100
H657        H  0.47980907  0.86472625  0.92493402     0.12100
H658        H  0.33453812  0.84024929  0.91064823     0.12100
C659        C  0.35682292  0.89862726  0.64025923    -0.14000
C660        C  0.39946077  0.91674643  0.65451107     0.08100
C661        C  0.43928166  0.90140646  0.63334865    -0.14000
C662        C  0.43635072  0.86908135  0.59804366    -0.14000
C663        C  0.39360880  0.85148471  0.58347634     0.08100
C664        C  0.35394044  0.86624839  0.60521628    -0.14000
H665        H  0.32547142  0.90967009  0.65601980     0.12100
H666        H  0.47256178  0.91456809  0.64381685     0.12100
H667        H  0.46760094  0.85760963  0.58245246     0.12100
H668        H  0.32060342  0.85350697  0.59442773     0.08900
C669        C  0.35679984  0.12187303  0.86846879    -0.14000
C670        C  0.39945540  0.10672989  0.85341950     0.08100
C671        C  0.43945592  0.12559947  0.87304864    -0.14000
C672        C  0.43672775  0.15832167  0.90778190    -0.14000
C673        C  0.39402652  0.17284519  0.92318631     0.08100
C674        C  0.35413184  0.15474519  0.90288236    -0.14000
H675        H  0.32531855  0.10808498  0.85387170     0.12100
H676        H  0.47274553  0.11485371  0.86187214     0.12100
H677        H  0.46803288  0.17240413  0.92247127     0.12100
H678        H  0.32086263  0.16520117  0.91444223     0.12100
C679        C  0.44608808  0.12140478  0.63562087    -0.14000
C680        C  0.40451571  0.10900722  0.65710995     0.08100
C681        C  0.36485522  0.13151055  0.64445582    -0.14000
C682        C  0.36662828  0.16520909  0.61052117    -0.14000
C683        C  0.40808936  0.17699373  0.58838839     0.08100
C684        C  0.44784190  0.15495928  0.60167769    -0.14000
H685        H  0.47737175  0.10494487  0.64481729     0.12100
H686        H  0.33240397  0.12292081  0.66060447     0.12100
H687        H  0.33525832  0.18119390  0.60082619     0.12100
H688        H  0.48050519  0.16381037  0.58616209     0.12100
loop_ 
_geom_bond_atom_site_label_1 
_geom_bond_atom_site_label_2 
_geom_bond_distance 
_geom_bond_site_symmetry_2 
_ccdc_geom_bond_type 
O1            V9   1.907       .  S
O1           C11   1.267       .  A
O2            V9   1.907   1_565  S
O2           C12   1.267       .  A
O3            V9   1.898   1_565  S
O3           C13   1.264       .  A
O4            V9   1.900       .  S
O4           C14   1.264       .  A
O5           V10   1.908       .  S
O5           C14   1.268       .  A
O6           V10   1.910   1_565  S
O6           C13   1.267       .  A
O7           V10   1.878   1_565  S
O7           C12   1.260       .  A
O8           V10   1.881       .  S
O8           C11   1.260       .  A
V9           V10   2.086       .  T
C11         C336   1.474       .  S
C12         C306   1.471       .  S
C13         C316   1.485       .  S
C14         C326   1.485       .  S
C15          C21   1.548       .  S
C15          C19   1.535       .  S
C15         C297   1.520       .  S
C15         C360   1.533       .  S
C16         C359   1.533       .  S
C16          H23   1.086       .  S
C16          C17   1.362       .  D
C17         C362   1.529       .  S
C17         C339   1.479       .  S
C18          C22   1.536       .  S
C18         C361   1.541       .  S
C18         C364   1.552       .  S
C18          H24   1.104       .  S
C19          H25   1.087       .  S
C19         C364   1.365       .  D
C20         C362   1.539       .  S
C20         C363   1.379       .  D
C20         C301   1.492       .  S
C21          H26   1.080       .  S
C21          C22   1.363       .  D
C22         C329   1.491       .  S
C27          C33   1.541       .  S
C27          C31   1.534       .  S
C27         C290   1.512       .  S
C27         C372   1.539   1_554  S
C28         C371   1.531       .  S
C28          H35   1.086       .  S
C28          C29   1.363       .  D
C29         C374   1.530       .  S
C29         C309   1.476       .  S
C30          C34   1.542       .  S
C30         C373   1.540   1_554  S
C30         C376   1.539       .  S
C30          H36   1.109       .  S
C31          H37   1.084       .  S
C31         C376   1.364       .  D
C32         C374   1.524       .  S
C32         C375   1.378       .  D
C32         C293   1.476       .  S
C33          H38   1.086       .  S
C33          C34   1.370       .  D
C34         C319   1.494       .  S
O39          V47   1.910   1_545  S
O39          C49   1.268       .  A
O40          V47   1.910       .  S
O40          C50   1.268       .  A
O41          V47   1.893       .  S
O41          C51   1.263       .  A
O42          V47   1.895   1_545  S
O42          C52   1.263       .  A
O43          V48   1.919   1_545  S
O43          C52   1.270       .  A
O44          V48   1.918       .  S
O44          C51   1.270       .  A
O45          V48   1.889       .  S
O45          C50   1.262       .  A
O46          V48   1.888   1_545  S
O46          C49   1.262       .  A
V47          V48   2.085       .  T
C49         C270   1.479       .  S
C50         C250   1.480       .  S
C51         C260   1.488       .  S
C52         C280   1.490       .  S
C53          C59   1.541   1_556  S
C53          C57   1.533       .  S
C53         C245   1.506       .  S
C53         C398   1.536       .  S
C54         C397   1.537       .  S
C54          H61   1.086       .  S
C54          C55   1.365       .  D
C55         C400   1.530       .  S
C55         C273   1.484       .  S
C56          C60   1.543       .  S
C56         C399   1.541   1_554  S
C56         C402   1.541   1_554  S
C56          H62   1.111       .  S
C57          H63   1.084       .  S
C57         C402   1.364       .  D
C58         C400   1.528       .  S
C58         C401   1.377       .  D
C58         C302   1.477       .  S
C59          H64   1.086       .  S
C59          C60   1.368       .  D
C60         C283   1.492       .  S
C65          C71   1.537       .  S
C65          C69   1.532       .  S
C65         C241   1.510       .  S
C65         C410   1.539       .  S
C66         C409   1.539       .  S
C66          H73   1.086       .  S
C66          C67   1.364       .  D
C67         C412   1.529       .  S
C67         C253   1.483       .  S
C68          C72   1.544       .  S
C68         C411   1.544       .  S
C68         C414   1.552       .  S
C68          H74   1.107       .  S
C69          H75   1.087       .  S
C69         C414   1.359       .  D
C70         C412   1.540       .  S
C70         C413   1.377       .  D
C70         C294   1.491       .  S
C71          H76   1.086       .  S
C71          C72   1.367       .  D
C72         C263   1.489       .  S
O77          V85   1.902       .  S
O77          C87   1.265       .  A
O78          V85   1.901   1_655  S
O78          C88   1.265       .  A
O79          V85   1.898   1_655  S
O79          C89   1.265       .  A
O80          V85   1.899       .  S
O80          C90   1.265       .  A
O81          V86   1.902       .  S
O81          C90   1.265       .  A
O82          V86   1.901   1_655  S
O82          C89   1.265       .  A
O83          V86   1.891   1_655  S
O83          C88   1.264       .  A
O84          V86   1.891       .  S
O84          C87   1.264       .  A
V85          V86   2.087       .  T
C87         C225   1.476       .  S
C88         C202   1.475       .  S
C89         C212   1.479       .  S
C90         C232   1.481       .  S
C91          C97   1.538       .  S
C91          C95   1.548   1_554  S
C91         C298   1.521       .  S
C91         C436   1.543   1_554  S
C92         C435   1.529       .  S
C92          H99   1.087       .  S
C92          C93   1.360       .  D
C93         C438   1.537       .  S
C93         C222   1.480       .  S
C94          C98   1.535   1_556  S
C94         C437   1.534       .  S
C94         C440   1.533       .  S
C94         H100   1.111       .  S
C95         H101   1.085       .  S
C95         C440   1.374       .  D
C96         C438   1.551       .  S
C96         C439   1.367       .  D
C96         C197   1.486       .  S
C97         H102   1.086       .  S
C97          C98   1.363       .  D
C98         C235   1.481       .  S
C103        C109   1.542       .  S
C103        C107   1.547       .  S
C103        C246   1.519       .  S
C103        C448   1.541       .  S
C104        C447   1.526   1_554  S
C104        H111   1.086       .  S
C104        C105   1.363       .  D
C105        C450   1.541   1_554  S
C105        C205   1.484       .  S
C106        C110   1.531       .  S
C106        C449   1.534       .  S
C106        C452   1.530       .  S
C106        H112   1.111       .  S
C107        H113   1.085       .  S
C107        C452   1.373       .  D
C108        C450   1.553       .  S
C108        C451   1.367       .  D
C108        C193   1.494       .  S
C109        H114   1.086       .  S
C109        C110   1.364       .  D
C110        C215   1.480       .  S
O115        V123   1.907   1_655  S
O115        C125   1.266       .  A
O116        V123   1.908       .  S
O116        C126   1.266       .  A
O117        V123   1.900       .  S
O117        C127   1.265       .  A
O118        V123   1.900   1_655  S
O118        C128   1.265       .  A
O119        V124   1.897   1_655  S
O119        C128   1.264       .  A
O120        V124   1.898       .  S
O120        C127   1.264       .  A
O121        V124   1.888       .  S
O121        C126   1.263       .  A
O122        V124   1.887   1_655  S
O122        C125   1.263       .  A
V123        V124   2.086       .  T
C125        C157   1.477       .  S
C126        C187   1.478       .  S
C127        C174   1.478       .  S
C128        C167   1.478       .  S
C129        C135   1.541       .  S
C129        C133   1.545       .  S
C129        C289   1.519       .  S
C129        C474   1.541       .  S
C130        C473   1.529       .  S
C130        H137   1.086       .  S
C130        C131   1.363       .  D
C131        C476   1.536       .  S
C131        C184   1.481       .  S
C132        C136   1.533       .  S
C132        C475   1.532       .  S
C132        C478   1.527       .  S
C132        H138   1.110       .  S
C133        H139   1.085       .  S
C133        C478   1.372       .  D
C134        C476   1.548       .  S
C134        C477   1.371       .  D
C134        C198   1.494       .  S
C135        H140   1.086       .  S
C135        C136   1.367       .  D
C136        C177   1.485       .  S
C141        C147   1.540   1_556  S
C141        C145   1.554       .  S
C141        C242   1.524   1_556  S
C141        C486   1.539       .  S
C142        C485   1.530       .  S
C142        H149   1.086       .  S
C142        C143   1.366       .  D
C143        C488   1.537       .  S
C143        C154   1.486       .  S
C144        C148   1.531   1_556  S
C144        C487   1.531       .  S
C144        C490   1.527       .  S
C144        H150   1.111       .  S
C145        H151   1.085       .  S
C145        C490   1.378       .  D
C146        C488   1.548       .  S
C146        C489   1.368       .  D
C146        C194   1.489       .  S
C147        H152   1.086       .  S
C147        C148   1.363       .  D
C148        C164   1.480       .  S
C153        C154   1.404       .  A
C153        C158   1.391       .  A
C153        H159   1.082       .  S
C154        C155   1.407       .  A
C155        C156   1.402       .  A
C155        H160   1.080       .  S
C156        C157   1.405       .  A
C156        H161   1.083       .  S
C157        C158   1.404       .  A
C158        H162   1.083       .  S
C163        C164   1.403       .  A
C163        C168   1.398       .  A
C163        H169   1.083       .  S
C164        C165   1.404       .  A
C165        C166   1.396       .  A
C165        H170   1.083       .  S
C166        C167   1.404       .  A
C166        H171   1.083       .  S
C167        C168   1.407       .  A
C168        H172   1.083       .  S
C173        C174   1.404       .  A
C173        C178   1.397       .  A
C173        H179   1.083       .  S
C174        C175   1.406       .  A
C175        C176   1.399       .  A
C175        H180   1.083       .  S
C176        C177   1.404       .  A
C176        H181   1.083       .  S
C177        C178   1.406       .  A
C178        H182   1.082       .  S
C183        C184   1.405       .  A
C183        C188   1.401       .  A
C183        H189   1.083       .  S
C184        C185   1.402       .  A
C185        C186   1.392       .  A
C185        H190   1.083       .  S
C186        C187   1.405       .  A
C186        H191   1.083       .  S
C187        C188   1.406       .  A
C188        H192   1.082       .  S
C193        H195   1.086       .  S
C193        C538   1.339   1_556  D
C194        H196   1.086       .  S
C194        C537   1.340       .  D
C197        H543   1.086       .  S
C197        C542   1.338       .  D
C198        H544   1.086       .  S
C198        C541   1.344   1_554  D
H199        C541   1.080       .  S
H200        C542   1.080       .  S
C201        C202   1.403       .  A
C201        C206   1.392       .  A
C201        H207   1.083       .  S
C202        C203   1.406       .  A
C203        C204   1.400       .  A
C203        H208   1.083       .  S
C204        C205   1.404       .  A
C204        H209   1.081       .  S
C205        C206   1.406       .  A
C206        H210   1.082       .  S
C211        C212   1.404       .  A
C211        C216   1.395       .  A
C211        H217   1.083       .  S
C212        C213   1.407       .  A
C213        C214   1.400       .  A
C213        H218   1.083       .  S
C214        C215   1.403       .  A
C214        H219   1.083       .  S
C215        C216   1.404       .  A
C216        H220   1.083       .  S
C221        C222   1.404       .  A
C221        C226   1.391       .  A
C221        H227   1.083       .  S
C222        C223   1.404       .  A
C223        C224   1.401       .  A
C223        H228   1.083       .  S
C224        C225   1.407       .  A
C224        H229   1.083       .  S
C225        C226   1.403       .  A
C226        H230   1.083       .  S
C231        C232   1.407       .  A
C231        C236   1.400       .  A
C231        H237   1.083       .  S
C232        C233   1.406       .  A
C233        C234   1.398       .  A
C233        H238   1.083       .  S
C234        C235   1.403       .  A
C234        H239   1.083       .  S
C235        C236   1.404       .  A
C236        H240   1.083       .  S
C241        H587   1.082       .  S
C241        C586   1.340       .  D
C242        H588   1.084       .  S
C242        C585   1.352       .  D
H243        C585   1.088       .  S
H244        C586   1.088       .  S
C245        H247   1.082       .  S
C245        C590   1.339       .  D
C246        H248   1.084       .  S
C246        C589   1.346       .  D
C249        C250   1.409       .  A
C249        C254   1.398       .  A
C249        H255   1.083       .  S
C250        C251   1.403       .  A
C251        C252   1.398       .  A
C251        H256   1.083       .  S
C252        C253   1.406       .  A
C252        H257   1.083       .  S
C253        C254   1.402       .  A
C254        H258   1.083       .  S
C259        C260   1.406       .  A
C259        C264   1.403       .  A
C259        H265   1.083       .  S
C260        C261   1.409       .  A
C261        C262   1.400       .  A
C261        H266   1.083       .  S
C262        C263   1.403       .  A
C262        H267   1.083       .  S
C263        C264   1.407       .  A
C264        H268   1.083       .  S
C269        C270   1.407       .  A
C269        C274   1.395       .  A
C269        H275   1.083       .  S
C270        C271   1.404       .  A
C271        C272   1.400       .  A
C271        H276   1.083       .  S
C272        C273   1.407       .  A
C272        H277   1.082       .  S
C273        C274   1.403       .  A
C274        H278   1.083       .  S
C279        C280   1.407       .  A
C279        C284   1.406       .  A
C279        H285   1.083       .  S
C280        C281   1.408       .  A
C281        C282   1.398       .  A
C281        H286   1.083       .  S
C282        C283   1.403       .  A
C282        H287   1.083       .  S
C283        C284   1.408       .  A
C284        H288   1.083       .  S
C289        H291   1.084       .  S
C289        C634   1.345       .  D
C290        H292   1.082       .  S
C290        C633   1.341       .  D
C293        H639   1.080       .  S
C293        C638   1.334       .  D
C294        H640   1.083       .  S
C294        C637   1.351       .  D
H295        C637   1.075       .  S
H296        C638   1.086       .  S
C297        H643   1.087       .  S
C297        C642   1.343       .  D
C298        H644   1.084       .  S
C298        C641   1.347       .  D
H299        C641   1.088       .  S
H300        C642   1.078       .  S
C301        H303   1.086       .  S
C301        C646   1.352       .  D
C302        H304   1.080       .  S
C302        C645   1.338       .  D
C305        C306   1.406       .  A
C305        C310   1.390       .  A
C305        H311   1.083       .  S
C306        C307   1.402       .  A
C307        C308   1.397       .  A
C307        H312   1.083       .  S
C308        C309   1.407       .  A
C308        H313   1.083       .  S
C309        C310   1.400       .  A
C310        H314   1.083       .  S
C315        C316   1.406       .  A
C315        C320   1.403       .  A
C315        H321   1.083       .  S
C316        C317   1.406       .  A
C317        C318   1.398       .  A
C317        H322   1.083       .  S
C318        C319   1.406       .  A
C318        H323   1.082       .  S
C319        C320   1.408       .  A
C320        H324   1.082       .  S
C325        C326   1.404       .  A
C325        C330   1.399       .  A
C325        H331   1.083       .  S
C326        C327   1.408       .  A
C327        C328   1.401       .  A
C327        H332   1.083       .  S
C328        C329   1.405       .  A
C328        H333   1.081       .  S
C329        C330   1.407       .  A
C330        H334   1.083       .  S
C335        C336   1.403       .  A
C335        C340   1.398       .  A
C335        H341   1.083       .  S
C336        C337   1.407       .  A
C337        C338   1.393       .  A
C337        H342   1.083       .  S
C338        C339   1.401       .  A
C338        H343   1.083       .  S
C339        C340   1.407       .  A
C340        H344   1.082       .  S
O345        V353   1.893       .  S
O345        C355   1.263       .  A
O346        V353   1.894   1_565  S
O346        C356   1.263       .  A
O347        V353   1.910   1_565  S
O347        C357   1.268       .  A
O348        V353   1.909       .  S
O348        C358   1.268       .  A
O349        V354   1.882       .  S
O349        C358   1.260       .  A
O350        V354   1.882   1_565  S
O350        C357   1.260       .  A
O351        V354   1.912   1_565  S
O351        C356   1.268       .  A
O352        V354   1.911       .  S
O352        C355   1.268       .  A
V353        V354   2.086       .  T
C355        C680   1.482       .  S
C356        C650   1.484       .  S
C357        C660   1.476       .  S
C358        C670   1.476       .  S
C359        C365   1.534   1_554  S
C359        C363   1.551       .  S
C359        C641   1.513       .  S
C360        H367   1.086       .  S
C360        C361   1.365       .  D
C361        C683   1.489       .  S
C362        C366   1.527   1_554  S
C362        H368   1.102       .  S
C363        H369   1.085       .  S
C364        C645   1.490       .  S
C365        H370   1.086       .  S
C365        C366   1.362       .  D
C366        C673   1.477       .  S
C371        C377   1.537       .  S
C371        C375   1.554       .  S
C371        C634   1.513       .  S
C372        H379   1.086       .  S
C372        C373   1.366       .  D
C373        C653   1.489       .  S
C374        C378   1.528       .  S
C374        H380   1.110       .  S
C375        H381   1.084       .  S
C376        C637   1.480       .  S
C377        H382   1.086       .  S
C377        C378   1.364       .  D
C378        C663   1.480       .  S
O383        V391   1.896   1_545  S
O383        C393   1.264       .  A
O384        V391   1.901       .  S
O384        C394   1.265       .  A
O385        V391   1.907       .  S
O385        C395   1.267       .  A
O386        V391   1.905   1_545  S
O386        C396   1.267       .  A
O387        V392   1.885   1_545  S
O387        C396   1.261       .  A
O388        V392   1.884       .  S
O388        C395   1.261       .  A
O389        V392   1.913       .  S
O389        C394   1.268       .  A
O390        V392   1.912   1_545  S
O390        C393   1.268       .  A
V391        V392   2.086       .  T
C393        C614   1.485       .  S
C394        C594   1.489       .  S
C395        C604   1.475       .  S
C396        C624   1.474       .  S
C397        C403   1.534       .  S
C397        C401   1.552       .  S
C397        C589   1.512       .  S
C398        H405   1.086       .  S
C398        C399   1.364       .  D
C399        C617   1.485       .  S
C400        C404   1.531       .  S
C400        H406   1.110       .  S
C401        H407   1.083       .  S
C402        C646   1.479   1_556  S
C403        H408   1.087       .  S
C403        C404   1.363       .  D
C404        C627   1.476       .  S
C409        C415   1.534   1_554  S
C409        C413   1.549       .  S
C409        C585   1.517       .  S
C410        H417   1.086       .  S
C410        C411   1.368       .  D
C411        C597   1.492       .  S
C412        C416   1.533   1_554  S
C412        H418   1.101       .  S
C413        H419   1.084       .  S
C414        C638   1.486       .  S
C415        H420   1.086       .  S
C415        C416   1.365       .  D
C416        C607   1.486       .  S
O421        V429   1.896       .  S
O421        C431   1.264       .  A
O422        V429   1.898   1_655  S
O422        C432   1.264       .  A
O423        V429   1.905   1_655  S
O423        C433   1.266       .  A
O424        V429   1.904       .  S
O424        C434   1.266       .  A
O425        V430   1.899       .  S
O425        C434   1.265       .  A
O426        V430   1.898   1_655  S
O426        C433   1.265       .  A
O427        V430   1.909   1_655  S
O427        C432   1.267       .  A
O428        V430   1.910       .  S
O428        C431   1.267       .  A
V429        V430   2.086       .  T
C431        C569   1.484       .  S
C432        C546   1.485       .  S
C433        C556   1.482       .  S
C434        C576   1.483       .  S
C435        C441   1.538       .  S
C435        C439   1.533       .  S
C435        C642   1.505       .  S
C436        H443   1.086       .  S
C436        C437   1.364       .  D
C437        C566   1.484       .  S
C438        C442   1.540       .  S
C438        H444   1.106       .  S
C439        H445   1.086       .  S
C440        C541   1.482       .  S
C441        H446   1.086       .  S
C441        C442   1.369       .  D
C442        C579   1.486       .  S
C447        C453   1.530       .  S
C447        C451   1.544       .  S
C447        C590   1.507       .  S
C448        H455   1.086       .  S
C448        C449   1.364       .  D
C449        C549   1.485       .  S
C450        C454   1.542       .  S
C450        H456   1.106       .  S
C451        H457   1.083       .  S
C452        C537   1.477       .  S
C453        H458   1.086       .  S
C453        C454   1.365       .  D
C454        C559   1.487       .  S
O459        V467   1.897   1_655  S
O459        C469   1.265       .  A
O460        V467   1.893       .  S
O460        C470   1.264       .  A
O461        V467   1.905       .  S
O461        C471   1.266       .  A
O462        V467   1.906   1_655  S
O462        C472   1.266       .  A
O463        V468   1.892   1_655  S
O463        C472   1.264       .  A
O464        V468   1.893       .  S
O464        C471   1.264       .  A
O465        V468   1.898       .  S
O465        C470   1.264       .  A
O466        V468   1.897   1_655  S
O466        C469   1.264       .  A
V467        V468   2.086       .  T
C469        C501   1.477       .  S
C470        C531   1.474       .  S
C471        C518   1.480       .  S
C472        C511   1.479       .  S
C473        C479   1.532   1_554  S
C473        C477   1.549       .  S
C473        C633   1.513       .  S
C474        H481   1.086       .  S
C474        C475   1.364       .  D
C475        C528   1.481       .  S
C476        C480   1.536   1_554  S
C476        H482   1.105       .  S
C477        H483   1.083       .  S
C478        C542   1.474       .  S
C479        H484   1.086       .  S
C479        C480   1.364       .  D
C480        C521   1.482       .  S
C485        C491   1.531       .  S
C485        C489   1.546       .  S
C485        C586   1.513       .  S
C486        H493   1.086       .  S
C486        C487   1.363       .  D
C487        C498   1.477       .  S
C488        C492   1.535       .  S
C488        H494   1.105       .  S
C489        H495   1.083       .  S
C490        C538   1.482   1_556  S
C491        H496   1.086       .  S
C491        C492   1.365       .  D
C492        C508   1.483       .  S
C497        C498   1.402       .  A
C497        C502   1.398       .  A
C497        H503   1.083       .  S
C498        C499   1.404       .  A
C499        C500   1.396       .  A
C499        H504   1.083       .  S
C500        C501   1.405       .  A
C500        H505   1.083       .  S
C501        C502   1.406       .  A
C502        H506   1.083       .  S
C507        C508   1.403       .  A
C507        C512   1.393       .  A
C507        H513   1.083       .  S
C508        C509   1.406       .  A
C509        C510   1.401       .  A
C509        H514   1.083       .  S
C510        C511   1.406       .  A
C510        H515   1.083       .  S
C511        C512   1.405       .  A
C512        H516   1.083       .  S
C517        C518   1.406       .  A
C517        C522   1.400       .  A
C517        H523   1.083       .  S
C518        C519   1.406       .  A
C519        C520   1.395       .  A
C519        H524   1.083       .  S
C520        C521   1.404       .  A
C520        H525   1.083       .  S
C521        C522   1.404       .  A
C522        H526   1.082       .  S
C527        C528   1.404       .  A
C527        C532   1.392       .  A
C527        H533   1.082       .  S
C528        C529   1.404       .  A
C529        C530   1.399       .  A
C529        H534   1.083       .  S
C530        C531   1.406       .  A
C530        H535   1.083       .  S
C531        C532   1.403       .  A
C532        H536   1.083       .  S
C537        H539   1.079       .  S
C538        H540   1.080       .  S
C545        C546   1.406       .  A
C545        C550   1.401       .  A
C545        H551   1.083       .  S
C546        C547   1.407       .  A
C547        C548   1.399       .  A
C547        H552   1.083       .  S
C548        C549   1.404       .  A
C548        H553   1.083       .  S
C549        C550   1.405       .  A
C550        H554   1.083       .  S
C555        C556   1.407       .  A
C555        C560   1.401       .  A
C555        H561   1.083       .  S
C556        C557   1.405       .  A
C557        C558   1.397       .  A
C557        H562   1.083       .  S
C558        C559   1.406       .  A
C558        H563   1.083       .  S
C559        C560   1.405       .  A
C560        H564   1.083       .  S
C565        C566   1.406       .  A
C565        C570   1.403       .  A
C565        H571   1.083       .  S
C566        C567   1.402       .  A
C567        C568   1.396       .  A
C567        H572   1.083       .  S
C568        C569   1.406       .  A
C568        H573   1.083       .  S
C569        C570   1.407       .  A
C570        H574   1.083       .  S
C575        C576   1.406       .  A
C575        C580   1.398       .  A
C575        H581   1.083       .  S
C576        C577   1.406       .  A
C577        C578   1.399       .  A
C577        H582   1.083       .  S
C578        C579   1.405       .  A
C578        H583   1.082       .  S
C579        C580   1.405       .  A
C580        H584   1.083       .  S
C589        H591   1.089       .  S
C590        H592   1.088       .  S
C593        C594   1.406       .  A
C593        C598   1.403       .  A
C593        H599   1.083       .  S
C594        C595   1.408       .  A
C595        C596   1.401       .  A
C595        H600   1.083       .  S
C596        C597   1.404       .  A
C596        H601   1.081       .  S
C597        C598   1.407       .  A
C598        H602   1.083       .  S
C603        C604   1.405       .  A
C603        C608   1.393       .  A
C603        H609   1.083       .  S
C604        C605   1.403       .  A
C605        C606   1.399       .  A
C605        H610   1.083       .  S
C606        C607   1.409       .  A
C606        H611   1.082       .  S
C607        C608   1.403       .  A
C608        H612   1.082       .  S
C613        C614   1.406       .  A
C613        C618   1.401       .  A
C613        H619   1.083       .  S
C614        C615   1.408       .  A
C615        C616   1.399       .  A
C615        H620   1.083       .  S
C616        C617   1.402       .  A
C616        H621   1.083       .  S
C617        C618   1.406       .  A
C618        H622   1.083       .  S
C623        C624   1.407       .  A
C623        C628   1.394       .  A
C623        H629   1.083       .  S
C624        C625   1.404       .  A
C625        C626   1.397       .  A
C625        H630   1.083       .  S
C626        C627   1.405       .  A
C626        H631   1.083       .  S
C627        C628   1.401       .  A
C628        H632   1.083       .  S
C633        H635   1.088       .  S
C634        H636   1.089       .  S
C645        H647   1.086       .  S
C646        H648   1.079       .  S
C649        C650   1.405       .  A
C649        C654   1.402       .  A
C649        H655   1.083       .  S
C650        C651   1.407       .  A
C651        C652   1.398       .  A
C651        H656   1.083       .  S
C652        C653   1.404       .  A
C652        H657   1.083       .  S
C653        C654   1.407       .  A
C654        H658   1.083       .  S
C659        C660   1.407       .  A
C659        C664   1.394       .  A
C659        H665   1.083       .  S
C660        C661   1.403       .  A
C661        C662   1.398       .  A
C661        H666   1.083       .  S
C662        C663   1.407       .  A
C662        H667   1.083       .  S
C663        C664   1.400       .  A
C664        H668   1.083       .  S
C669        C670   1.408       .  A
C669        C674   1.394       .  A
C669        H675   1.083       .  S
C670        C671   1.403       .  A
C671        C672   1.397       .  A
C671        H676   1.083       .  S
C672        C673   1.406       .  A
C672        H677   1.083       .  S
C673        C674   1.400       .  A
C674        H678   1.083       .  S
C679        C680   1.407       .  A
C679        C684   1.397       .  A
C679        H685   1.083       .  S
C680        C681   1.404       .  A
C681        C682   1.400       .  A
C681        H686   1.083       .  S
C682        C683   1.408       .  A
C682        H687   1.082       .  S
C683        C684   1.404       .  A
C684        H688   1.082       .  S
