geometry optimzed in LAMMPS
_audit_creation_date              2020-11-30 
_audit_creation_method            'lammps2cif' 
_symmetry_space_group_name_H-M    'P1' 
_symmetry_Int_Tables_number       1 
_symmetry_cell_setting            triclinic 
loop_ 
_symmetry_equiv_pos_as_xyz 
  x,y,z 
_cell_length_a                    34.91325076 
_cell_length_b                    34.78530685437116 
_cell_length_c                    42.716002512405936 
_cell_angle_alpha                 89.76715392919523 
_cell_angle_beta                  90.47224940443155 
_cell_angle_gamma                 121.58863838509467 
loop_ 
_atom_site_label 
_atom_site_type_symbol 
_atom_site_fract_x 
_atom_site_fract_y 
_atom_site_fract_z 
_atom_site_charge 
C1          C  0.46379533  0.07763980  0.32180720     0.42400
N2          N  0.49365859  0.06777612  0.28076957     0.01300
C3          C  0.40052053  0.87683214  0.18615401    -0.06600
H4          H  0.39778404  0.85158439  0.31137687     0.06800
C5          C  0.56844834  0.93837883  0.30552792    -0.06900
Co6        Co  0.42753252  0.98578485  0.24369086     0.74200
N7          N  0.41498965  0.90627028  0.27938712    -0.26100
Co8        Co  0.45974387  0.90642881  0.24693907     0.74100
C9          C  0.53508104  0.89688483  0.32094956     0.42500
N10         N  0.59395909  0.04268649  0.28171036     0.00900
N11         N  0.50366465  0.91068434  0.28261395     0.01000
N12         N  0.38162213  0.92977583  0.18393117    -0.47000
H13         H  0.39405305  0.01685333  0.30862069     0.06800
N14         N  0.40260707  0.93612849  0.27756518     0.01300
N15         N  0.50532063  0.90900092  0.21436209     0.01000
C16         C  0.53728570  0.89223985  0.17918822     0.42600
N17         N  0.58111423  0.07214904  0.28122189    -0.25600
C18         C  0.43329785  0.04472394  0.18680610    -0.06500
N19         N  0.50282374  0.09363700  0.30597534    -0.46700
N20         N  0.49732272  0.87845591  0.19270845    -0.46900
C21         C  0.46818811  0.08709073  0.17290000     0.42400
N22         N  0.40660532  0.93543278  0.20903525     0.01300
N23         N  0.58253775  0.07266972  0.21328858    -0.25600
N24         N  0.45090418  0.03530484  0.27902302    -0.26100
N25         N  0.59488301  0.04271334  0.21356840     0.00900
H26         H  0.59802650  0.12846042  0.18305619     0.06800
H27         H  0.60642389  0.95562449  0.18936403     0.06800
N28         N  0.41826050  0.90494533  0.21079291    -0.26100
N29         N  0.54612505  0.94393178  0.28224119    -0.25800
N30         N  0.49637749  0.07002845  0.21138666     0.01300
C31         C  0.36746270  0.89641126  0.31753681     0.42700
C32         C  0.60089670  0.10083014  0.30489495    -0.07000
N33         N  0.54781435  0.94223690  0.21509422    -0.25800
H34         H  0.60401178  0.96021256  0.31010650     0.06800
N35         N  0.37427711  0.93138971  0.29978294    -0.47000
H36         H  0.59695501  0.12903095  0.30964971     0.06800
C37         C  0.62855134  0.08456843  0.17381973     0.42500
C38         C  0.42930863  0.03920231  0.30358488    -0.06500
Co39       Co  0.53895840  0.07178687  0.24672054     0.73800
N40         N  0.62216737  0.04950484  0.30495077    -0.46700
C41         C  0.37607809  0.89332517  0.16831423     0.42800
N42         N  0.50639652  0.10101125  0.18946311    -0.46700
Co43       Co  0.57147716  0.99308206  0.24805108     0.73900
C44         C  0.57074914  0.93459705  0.19367801    -0.07000
C45         C  0.39421920  0.87931407  0.30394572    -0.06600
N46         N  0.45393299  0.03683986  0.21027197    -0.26100
N47         N  0.49558865  0.88142486  0.30542033    -0.46900
H48         H  0.40525702  0.84916383  0.18110594     0.06800
C49         C  0.60212730  0.10061076  0.18906892    -0.07000
Cl50       Cl  0.49936553  0.98921326  0.24626854    -0.50000
C51         C  0.62811254  0.08572076  0.32066478     0.42500
H52         H  0.39795617  0.02406268  0.18085631     0.06800
N53         N  0.62245118  0.04864389  0.19041159    -0.46700
C54         C  0.11060458  0.62960460  0.31712933     0.42400
N55         N  0.09362637  0.58811468  0.27697144     0.01300
C56         C  0.89191316  0.47895143  0.19448510    -0.06600
H57         H  0.87585435  0.45081666  0.31581119     0.06800
C58         C  0.97449129  0.38422876  0.30787148    -0.06900
Co59       Co  0.00543296  0.56587493  0.24848835     0.74200
N60         N  0.93113860  0.49353909  0.28566323    -0.26100
Co61       Co  0.93060016  0.45086708  0.25069777     0.74100
C62         C  0.93732225  0.37923542  0.32635292     0.42500
N63         N  0.07413476  0.46470261  0.27661717     0.00900
N64         N  0.94106294  0.41391925  0.28422011     0.01000
N65         N  0.94087841  0.55429737  0.19497857    -0.47000
H66         H  0.04691080  0.63352191  0.31261746     0.06800
N67         N  0.96029165  0.53743044  0.28525088     0.01300
N68         N  0.93210439  0.40956180  0.21568677     0.01000
C69         C  0.91909793  0.36801900  0.17526449     0.42600
N70         N  0.10342428  0.50854226  0.27559576    -0.25600
C71         C  0.04828916  0.61554558  0.18695208    -0.06500
N72         N  0.12451283  0.60787177  0.29912303    -0.46700
N73         N  0.90284353  0.38894144  0.19241577    -0.46900
C74         C  0.08606190  0.62418000  0.16777069     0.42400
N75         N  0.95099750  0.53418998  0.21701068     0.01300
N76         N  0.09321069  0.50753881  0.20725434    -0.25600
N77         N  0.06015735  0.59526320  0.27949866    -0.26100
N78         N  0.06505203  0.46353666  0.20817477     0.00900
H79         H  0.14413336  0.55225597  0.17479999     0.06800
H80         H  0.98424217  0.36793415  0.18227544     0.06800
N81         N  0.92284878  0.49011353  0.21730922    -0.26100
N82         N  0.97467932  0.40687230  0.28229742    -0.25800
N83         N  0.08432677  0.58718109  0.20870174     0.01300
C84         C  0.91908433  0.52778160  0.32521442     0.42700
C85         C  0.13451027  0.51873140  0.29835917    -0.07000
N86         N  0.96646821  0.40371360  0.21425328    -0.25800
H87         H  0.99859736  0.37462072  0.31352006     0.06800
N88         N  0.95426758  0.55917445  0.30831805    -0.47000
H89         H  0.16251548  0.55216953  0.30372052     0.06800
C90         C  0.10141066  0.47587910  0.16540775     0.42500
C91         C  0.06832902  0.62194078  0.30426439    -0.06500
Co92       Co  0.09488142  0.54868922  0.24209198     0.73800
N93         N  0.08302730  0.44412367  0.29909617    -0.46700
C94         C  0.90415110  0.52190775  0.17952068     0.42800
N95         N  0.10723677  0.60584560  0.18259136    -0.46700
Co96       Co  0.02006795  0.43364095  0.24534536     0.73900
C97         C  0.96104175  0.37779708  0.18965565    -0.07000
C98         C  0.90375636  0.48411302  0.31008116    -0.06600
N99         N  0.04977666  0.59253088  0.21155868    -0.26100
N100        N  0.91814265  0.39829986  0.31043527    -0.46900
H101        H  0.86415712  0.44521616  0.18960677     0.06800
C102        C  0.11776772  0.51860714  0.18122467    -0.07000
Cl103      Cl  0.01269401  0.49973276  0.24674022    -0.50000
C104        C  0.12083456  0.47556183  0.31398052     0.42500
H105        H  0.02350391  0.62474007  0.18284415     0.06800
N106        N  0.06925088  0.44310159  0.18360786    -0.46700
C107        C  0.36333619  0.47884007  0.32098117     0.42400
N108        N  0.40833126  0.50173154  0.28240671     0.01300
C109        C  0.50001432  0.39540840  0.20397261    -0.06600
H110        H  0.52508894  0.40414236  0.32580156     0.06800
C111        C  0.61182441  0.57465857  0.31949711    -0.06900
Co112      Co  0.42273145  0.43166074  0.25529963     0.74200
N113        N  0.48866092  0.42202081  0.29376860    -0.26100
Co114      Co  0.53576240  0.46453545  0.26038507     0.74100
C115        C  0.61474747  0.54065252  0.33749022     0.42500
N116        N  0.53649455  0.59999192  0.28742797     0.00900
N117        N  0.57533058  0.50997670  0.29600422     0.01000
N118        N  0.42683065  0.37437367  0.20309307    -0.47000
H119        H  0.35198168  0.40725307  0.31817941     0.06800
N120        N  0.44615544  0.41077297  0.29246132     0.01300
N121        N  0.58349853  0.51001823  0.22706673     0.01000
C122        C  0.63753333  0.54397247  0.19338467     0.42600
N123        N  0.49406093  0.58808820  0.28434211    -0.25600
C124        C  0.37726907  0.43090271  0.19293834    -0.06500
N125        N  0.38994526  0.51495896  0.30327014    -0.46700
N126        N  0.60858119  0.50339535  0.20706905    -0.46900
C127        C  0.37558780  0.46383578  0.17275226     0.42400
N128        N  0.44985879  0.40566931  0.22464470     0.01300
N129        N  0.50130686  0.58602398  0.21796416    -0.25600
N130        N  0.39641106  0.45917922  0.28559664    -0.26100
N131        N  0.54424369  0.59965111  0.22068901     0.00900
H132        H  0.46506820  0.60867356  0.19118342     0.06800
H133        H  0.64277956  0.61189130  0.20236447     0.06800
N134        N  0.49288725  0.41874668  0.22573399    -0.26100
N135        N  0.58645403  0.55252229  0.29452017    -0.25800
N136        N  0.41421021  0.49702261  0.21420389     0.01300
C137        C  0.44985321  0.37682249  0.33299258     0.42700
C138        C  0.48475962  0.60972412  0.30607396    -0.07000
N139        N  0.59435478  0.55250860  0.22704428    -0.25800
H140        H  0.62622000  0.61010495  0.32450117     0.06800
N141        N  0.42162637  0.38351501  0.31547526    -0.47000
H142        H  0.45253835  0.60638354  0.30945305     0.06800
C143        C  0.54171504  0.64176336  0.18540950     0.42500
C144        C  0.36742330  0.44144606  0.30956491    -0.06500
Co145      Co  0.45388379  0.54336379  0.24940534     0.73800
N146        N  0.55729646  0.62889510  0.31041145    -0.46700
C147        C  0.45590413  0.36573596  0.18895002     0.42800
N148        N  0.39910023  0.50435916  0.18748304    -0.46700
Co149      Co  0.56597542  0.57662854  0.25741863     0.73900
C150        C  0.62744782  0.57622635  0.20659180    -0.07000
C151        C  0.49411182  0.40175395  0.31868271    -0.06600
N152        N  0.40202220  0.45438642  0.21760593    -0.26100
N153        N  0.59151350  0.50129908  0.32153991    -0.46900
H154        H  0.53178015  0.39787720  0.20004141     0.06800
C155        C  0.49629003  0.61035825  0.19621989    -0.07000
Cl156      Cl  0.49466575  0.50396523  0.25548767    -0.50000
C157        C  0.52703304  0.63688149  0.32317910     0.42500
H158        H  0.36290544  0.39515221  0.18942740     0.06800
N159        N  0.56995531  0.63334793  0.20150805    -0.46700
O160        O  0.78651525  0.49264813  0.48530136    -0.80200
O161        O  0.77295449  0.61299074  0.07237801    -0.80200
O162        O  0.82094699  0.54391183  0.04811871    -0.80200
O163        O  0.70937769  0.48583194  0.01315719    -0.80200
O164        O  0.85124561  0.61353588  0.06518864    -0.80300
O165        O  0.71062904  0.48973845  0.46411390    -0.80200
O166        O  0.73436820  0.54082711  0.06318018    -0.80200
O167        O  0.85660669  0.52339385  0.50394187    -0.80200
C168        C  0.81948097  0.48883292  0.49559715     1.09500
C169        C  0.74556750  0.57286753  0.08184537     1.09400
C170        C  0.84054506  0.57286819  0.06973101     1.09500
C171        C  0.69483598  0.46755084  0.48849812     1.09400
O172        O  0.76081531  0.58116853  0.44545746    -0.80200
O173        O  0.87143664  0.66778147  0.00888142    -0.80300
O174        O  0.85648008  0.57718173  0.45997659    -0.80200
O175        O  0.72267596  0.60629460  0.02728930    -0.80200
O176        O  0.78996205  0.66234660  0.01367272    -0.80200
O177        O  0.79708759  0.53523812  0.43237231    -0.80200
O178        O  0.70145454  0.55465304  0.47543108    -0.80200
O179        O  0.89202144  0.61546793  0.51574009    -0.80200
Co180      Co  0.77142083  0.54016562  0.46974317     1.51500
Co181      Co  0.81976800  0.63603421  0.03737763     1.51700
Co182      Co  0.83219584  0.55998588  0.50570282     1.51600
Co183      Co  0.72212502  0.54896876  0.01916836     1.51500
O184        O  0.78923515  0.58134666  0.00725627    -1.42100
C185        C  0.72106206  0.57152507  0.44933536     1.09400
C186        C  0.90199624  0.65868103  0.00915762     1.09500
C187        C  0.83824659  0.55468441  0.43481939     1.09400
C188        C  0.74885169  0.64715038  0.01883003     1.09400
O189        O  0.71032954  0.21345043  0.49097059    -0.80200
O190        O  0.84025052  0.23229197  0.06121526    -0.80200
O191        O  0.73191753  0.17965504  0.04166079    -0.80200
O192        O  0.81307622  0.29859560  0.00643032    -0.80200
O193        O  0.76729470  0.14768741  0.05845930    -0.80300
O194        O  0.77595064  0.28990219  0.47356912    -0.80200
O195        O  0.88269526  0.29095800  0.03097915    -0.80200
O196        O  0.67416843  0.13851894  0.49386710    -0.80200
C197        C  0.67334772  0.17466269  0.49332114     1.09500
C198        C  0.86801549  0.27403092  0.05772120     1.09400
C199        C  0.73848549  0.15844766  0.06281324     1.09500
C200        C  0.79370559  0.31205154  0.49735661     1.09400
O201        O  0.82515213  0.26645877  0.44365175    -0.80200
O202        O  0.80240108  0.12436421  0.00849127    -0.80300
O203        O  0.73908229  0.14763074  0.45423359    -0.80200
O204        O  0.88788498  0.24851320  0.97587361    -0.80200
O205        O  0.88648488  0.20983824  0.01702869    -0.80200
O206        O  0.74309343  0.20711875  0.43680301    -0.80200
O207        O  0.88028967  0.32291796  0.47150550    -0.80200
O208        O  0.73297332  0.10760924  0.50910820    -0.80200
Co209      Co  0.77350487  0.23372616  0.47433440     1.51500
Co210      Co  0.82314973  0.18039744  0.03353920     1.51700
Co211      Co  0.73694102  0.16558692  0.49943625     1.51600
Co212      Co  0.84747731  0.26871876  0.99113705     1.51500
O213        O  0.80029682  0.20367751  0.99831418    -1.42100
C214        C  0.86319787  0.30407201  0.44517071     1.09400
C215        C  0.76034447  0.09592701  0.00433022     1.09500
C216        C  0.73194448  0.16780971  0.43225103     1.09400
C217        C  0.90764987  0.23579617  0.99420145     1.09400
O218        O  0.29559410  0.77298756  0.48447226    -0.80200
O219        O  0.15917978  0.76936253  0.05925822    -0.80200
O220        O  0.26603998  0.81066030  0.03442428    -0.80200
O221        O  0.14542268  0.68441181  0.99531418    -0.80200
O222        O  0.23919826  0.84884657  0.05502040    -0.80300
O223        O  0.21293848  0.72336505  0.51976020    -0.80200
O224        O  0.10447348  0.71844146  0.02912180    -0.80200
O225        O  0.32277690  0.84744953  0.48346520    -0.80200
C226        C  0.32954481  0.81425458  0.48344419     1.09500
C227        C  0.12585590  0.72987472  0.05502979     1.09400
C228        C  0.26615501  0.83501017  0.05621190     1.09500
C229        C  0.17962397  0.68571263  0.51080915     1.09400
O230        O  0.20511321  0.72126123  0.45118062    -0.80200
O231        O  0.20473601  0.87928119  0.00720282    -0.80300
O232        O  0.25333715  0.85042968  0.44727634    -0.80200
O233        O  0.11261657  0.77414203  0.97431195    -0.80200
O234        O  0.11493288  0.80093941  0.02017451    -0.80200
O235        O  0.25882752  0.79419536  0.44231739    -0.80200
O236        O  0.15457160  0.73924569  0.44093870    -0.80200
O237        O  0.27241753  0.88910321  0.50188183    -0.80200
Co238      Co  0.23698439  0.76844230  0.48542236     1.51500
Co239      Co  0.18001772  0.82252242  0.03258485     1.50200
Co240      Co  0.25844833  0.82786058  0.48926049     1.51600
Co241      Co  0.13163977  0.73266598  0.98571739     1.51500
O242        O  0.19071661  0.78939410  0.99665289    -1.42100
C243        C  0.17695954  0.72241476  0.43237230     1.09400
C244        C  0.24715060  0.90466922  0.00281254     1.09500
C245        C  0.26181694  0.82772586  0.42964508     1.09400
C246        C  0.09276901  0.78093557  0.99553566     1.09400
O247        O  0.53901804  0.85959016  0.49054012    -0.80200
O248        O  0.55479546  0.73724385  0.05433333    -0.80200
O249        O  0.49215902  0.70531126  0.50903359    -0.80200
O250        O  0.62315066  0.85162362  0.06174849    -0.80200
O251        O  0.52486709  0.66561298  0.01545048    -0.80300
O252        O  0.55434582  0.81971583  0.04249573    -0.80200
O253        O  0.62504439  0.77495867  0.06874335    -0.80200
O254        O  0.49361853  0.78603469  0.49555919    -0.80200
C255        C  0.49921334  0.82480365  0.49005554     1.09500
C256        C  0.58432891  0.74887499  0.07538551     1.09400
C257        C  0.49276972  0.66896570  0.51329413     1.09500
C258        C  0.58179476  0.83846078  0.06498843     1.09400
O259        O  0.63272717  0.89563824  0.50723812    -0.80200
O260        O  0.58515189  0.72505620  0.46377675    -0.80300
O261        O  0.53382154  0.78732091  0.44481362    -0.80200
O262        O  0.67844885  0.79175026  0.01621880    -0.80200
O263        O  0.61938976  0.72237924  0.02375338    -0.80200
O264        O  0.59680370  0.84944487  0.45266353    -0.80200
O265        O  0.68245632  0.87646582  0.00909255    -0.80200
O266        O  0.52342166  0.72242427  0.45341853    -0.80200
Co267      Co  0.57858793  0.83601557  0.49741515     1.51500
Co268      Co  0.56844167  0.72930776  0.01054743     1.51700
Co269      Co  0.53592283  0.76433942  0.48732721     1.51600
Co270      Co  0.64960092  0.82243405  0.03645004     1.51500
O271        O  0.59964095  0.79337710  0.00319267    -1.42100
C272        C  0.66885096  0.90378052  0.00622062     1.09400
C273        C  0.55367288  0.71584302  0.44472934     1.09500
C274        C  0.56537781  0.82423708  0.43402659     1.09400
C275        C  0.66151099  0.74930026  0.02019613     1.09400
O276        O  0.15138240  0.41290413  0.45564043    -0.80200
O277        O  0.24302670  0.35410916  0.97269524    -0.80200
O278        O  0.28700114  0.50246878  0.45751841    -0.80200
O279        O  0.12983400  0.32650934  0.00771183    -0.80200
O280        O  0.26897189  0.43320535  0.44604359    -0.80300
O281        O  0.11879339  0.38652737  0.51168631    -0.80200
O282        O  0.21146123  0.32480956  0.01749152    -0.80200
O283        O  0.20979429  0.47530852  0.44830254    -0.80200
C284        C  0.17403220  0.44388789  0.43693613     1.09500
C285        C  0.23277048  0.32459648  0.99344529     1.09400
C286        C  0.28618034  0.47396410  0.43821223     1.09500
C287        C  0.10189859  0.33961604  0.00525741     1.09400
O288        O  0.19215934  0.45783889  0.03851999    -0.80200
O289        O  0.31767682  0.48052254  0.00022804    -0.80300
O290        O  0.23465230  0.53567361  0.49335739    -0.80200
O291        O  0.23882626  0.39954151  0.05948400    -0.80200
O292        O  0.29041858  0.40139836  0.02932183    -0.80200
O293        O  0.16061255  0.48568427  0.49571073    -0.80200
O294        O  0.15781155  0.38947058  0.05648496    -0.80200
O295        O  0.28224837  0.50228122  0.52630216    -0.80200
Co296      Co  0.17877736  0.43918210  0.49752894     1.51500
Co297      Co  0.27581971  0.41702420  0.98691742     1.51700
Co298      Co  0.23832126  0.48080406  0.49100511     1.51600
Co299      Co  0.18661814  0.36333385  0.03215605     1.51500
O300        O  0.21535844  0.41094659  0.99649615    -1.42100
C301        C  0.17152740  0.43046051  0.06033738     1.09400
C302        C  0.31970086  0.50760951  0.51877161     1.09500
C303        C  0.19416792  0.52738721  0.49638960     1.09400
C304        C  0.27798282  0.40756174  0.05568411     1.09400
O305        O  0.47284232  0.14207257  0.50523062    -0.80200
O306        O  0.45159884  0.27437677  0.05696824    -0.80200
O307        O  0.50687248  0.28701488  0.46213116    -0.80200
O308        O  0.38731792  0.15593188  0.06418363    -0.80200
O309        O  0.50540144  0.29335268  0.00946585    -0.80300
O310        O  0.45772125  0.18859517  0.04890250    -0.80200
O311        O  0.38000661  0.23025970  0.06622621    -0.80200
O312        O  0.51017891  0.21331831  0.48884985    -0.80200
C313        C  0.50967637  0.17727806  0.49792988     1.09500
C314        C  0.41938703  0.25988428  0.07554931     1.09400
C315        C  0.52586068  0.30700006  0.48647557     1.09500
C316        C  0.42820752  0.16860386  0.06988234     1.09400
O317        O  0.38324853  0.10926189  0.51735341    -0.80200
O318        O  0.43666159  0.29317691  0.46869998    -0.80300
O319        O  0.46776363  0.19660990  0.43537431    -0.80200
O320        O  0.33146084  0.20508679  0.00757449    -0.80200
O321        O  0.38358525  0.27669469  0.01659025    -0.80200
O322        O  0.41681641  0.13983426  0.46047687    -0.80200
O323        O  0.33422609  0.12667311  0.00600555    -0.80200
O324        O  0.42229293  0.23325303  0.44153074    -0.80200
Co325      Co  0.43683742  0.16784854  0.50553443     1.51500
Co326      Co  0.44382771  0.28089162  0.01222042     1.51700
Co327      Co  0.46114614  0.22578965  0.47075486     1.51600
Co328      Co  0.36171159  0.18120268  0.03335386     1.51500
O329        O  0.41848074  0.21444958  0.00529683    -1.42100
C330        C  0.34697897  0.09884794  0.00856052     1.09400
C331        C  0.42498994  0.27089345  0.44294866     1.09500
C332        C  0.44151144  0.15548055  0.43612009     1.09400
C333        C  0.34324648  0.24621585  0.00923361     1.09400
C334        C  0.24662112  0.26726294  0.01860336    -0.12300
C335        C  0.25381434  0.29619231  0.99314180     0.04700
C336        C  0.28717086  0.30319047  0.97109378    -0.07600
C337        C  0.31487355  0.28557636  0.97652174    -0.08400
C338        C  0.30959772  0.25951794  0.00301415    -0.02900
C339        C  0.27358786  0.24852522  0.02339478     0.03900
N340        N  0.26463461  0.21961629  0.04971575     0.66400
H341        H  0.22122330  0.26056081  0.03567871     0.15300
H342        H  0.34071494  0.29249341  0.96011040     0.15000
N343        N  0.29468408  0.32912822  0.94330443     0.74100
O344        O  0.28049504  0.23688355  0.07617288    -0.39300
O345        O  0.23203683  0.17931772  0.04825728    -0.39300
O346        O  0.32842777  0.36878922  0.94204748    -0.40000
O347        O  0.28142938  0.31672751  0.42202469    -0.40100
C348        C  0.40590266  0.62772656  0.02019224    -0.12300
C349        C  0.44984375  0.62681952  0.52029582     0.04700
C350        C  0.44470792  0.58386510  0.52009625    -0.07600
C351        C  0.40196270  0.54543616  0.52405475    -0.08400
C352        C  0.36341680  0.54847236  0.52678976    -0.02900
C353        C  0.36906933  0.59159345  0.52879012     0.03900
N354        N  0.32588885  0.59688995  0.01923166     0.66400
H355        H  0.40915628  0.65978313  0.01500119     0.15300
H356        H  0.39846943  0.51270635  0.52226891     0.15000
N357        N  0.48130925  0.57803722  0.51304760     0.74100
O358        O  0.31402069  0.60978117  0.04278374    -0.39300
O359        O  0.32109073  0.61183902  0.50743089    -0.39300
O360        O  0.48671189  0.57465484  0.06384605    -0.40000
O361        O  0.48806382  0.57221763  0.48495171    -0.40100
C362        C  0.24868481  0.97674746  0.01151793    -0.12300
C363        C  0.26903539  0.95445279  0.99899026     0.04700
C364        C  0.31253497  0.98096095  0.98587580    -0.07600
C365        C  0.33556177  0.02792660  0.98769059    -0.08400
C366        C  0.31667478  0.05004716  0.00223592    -0.02900
C367        C  0.27211194  0.02419449  0.01327301     0.03900
N368        N  0.25147045  0.04191992  0.53549860     0.66400
H369        H  0.21567380  0.95447339  0.52646955     0.15300
H370        H  0.36933358  0.04725751  0.97853353     0.15000
N371        N  0.33474468  0.96123299  0.97103791     0.74100
O372        O  0.22167367  0.04796173  0.52391809    -0.39300
O373        O  0.25111579  0.04587868  0.05806700    -0.39300
O374        O  0.32669129  0.96408475  0.43526269    -0.40000
O375        O  0.36219307  0.95579823  0.98687751    -0.40100
C376        C  0.14681901  0.60497821  0.49577077    -0.12300
C377        C  0.17952232  0.64261332  0.51308457     0.04700
C378        C  0.21478646  0.64004557  0.52714256    -0.07600
C379        C  0.21881995  0.60236587  0.52139370    -0.08400
C380        C  0.18738661  0.56588563  0.50249722    -0.02900
C381        C  0.15030770  0.56711788  0.49051440     0.03900
N382        N  0.11717203  0.53166795  0.47119601     0.66400
H383        H  0.11905842  0.60550196  0.48478376     0.15300
H384        H  0.24635592  0.60131528  0.53220893     0.15000
N385        N  0.24638178  0.67513748  0.54749799     0.74100
O386        O  0.07329844  0.49930257  0.98518096    -0.39300
O387        O  0.11838783  0.53772387  0.44198583    -0.39300
O388        O  0.23387178  0.68103944  0.07181564    -0.40000
O389        O  0.28470382  0.70446473  0.53742586    -0.40100
C390        C  0.38024449  0.78972454  0.46650580    -0.12300
C391        C  0.37537490  0.82239984  0.48150532     0.04700
C392        C  0.41082073  0.85599070  0.99620632    -0.07600
C393        C  0.45209850  0.85827079  0.99542105    -0.08400
C394        C  0.45854882  0.82686222  0.48334946    -0.02900
C395        C  0.42091351  0.79137005  0.46709063     0.03900
N396        N  0.42255656  0.75654178  0.45058543     0.66400
H397        H  0.35168293  0.76140821  0.45507990     0.15300
H398        H  0.48116912  0.88664269  0.00612393     0.15000
N399        N  0.40836249  0.88981249  0.01323027     0.74100
O400        O  0.41176809  0.72059628  0.46506268    -0.39300
O401        O  0.41648151  0.75428629  0.42130989    -0.39300
O402        O  0.40696477  0.88929892  0.54224739    -0.40000
O403        O  0.42407387  0.92820458  0.00097155    -0.40100
C404        C  0.69005809  0.97746303  0.47989642    -0.12300
C405        C  0.69986524  0.95238343  0.00025148     0.04700
C406        C  0.74286518  0.97934547  0.01416586    -0.07600
C407        C  0.76437007  0.02677853  0.01305955    -0.08400
C408        C  0.74292654  0.04741333  0.99908790    -0.02900
C409        C  0.71027752  0.02396495  0.47983559     0.03900
N410        N  0.68917870  0.04225261  0.46155585     0.66400
H411        H  0.65890483  0.95759403  0.46704588     0.15300
H412        H  0.79605029  0.04717406  0.02523925     0.15000
N413        N  0.76327740  0.95974683  0.03187749     0.74100
O414        O  0.68813963  0.03720124  0.43230941    -0.39300
O415        O  0.65827908  0.04546233  0.47393745    -0.39300
O416        O  0.79552732  0.95832340  0.02008083    -0.40000
O417        O  0.75798788  0.95603271  0.06115831    -0.40100
C418        C  0.97947244  0.24084743  0.01156354    -0.12300
C419        C  0.95764166  0.25611734  0.99164663     0.04700
C420        C  0.98605568  0.30447198  0.48198154    -0.07600
C421        C  0.03275269  0.32880729  0.48629586    -0.08400
C422        C  0.05316642  0.30697486  0.99942648    -0.02900
C423        C  0.02676511  0.26563020  0.01535906     0.03900
N424        N  0.04651545  0.25016506  0.03753633     0.66400
H425        H  0.95977642  0.21087018  0.02550478     0.15300
H426        H  0.05207537  0.36186743  0.47607792     0.15000
N427        N  0.96772730  0.32583783  0.46425675     0.74100
O428        O  0.04916540  0.26151540  0.06585504    -0.39300
O429        O  0.04942795  0.21652455  0.03074886    -0.39300
O430        O  0.97278261  0.35197081  0.95852183    -0.40000
O431        O  0.96626562  0.32145564  0.43492700    -0.40100
C432        C  0.55108903  0.13930716  0.48516012    -0.12300
C433        C  0.55138520  0.17600561  0.49912662     0.04700
C434        C  0.59112152  0.21170726  0.97849268    -0.07600
C435        C  0.63154960  0.21216270  0.98013699    -0.08400
C436        C  0.63071239  0.17334626  0.49630266    -0.02900
C437        C  0.59017338  0.13743761  0.48407587     0.03900
N438        N  0.58857725  0.09951513  0.46981718     0.66400
H439        H  0.52044714  0.11228388  0.47447172     0.15300
H440        H  0.65972413  0.23639960  0.96619863     0.15000
N441        N  0.58838083  0.24124959  0.95655122     0.74100
O442        O  0.57834998  0.06528528  0.48628769    -0.39300
O443        O  0.60682247  0.10406922  0.44357026    -0.39300
O444        O  0.60740150  0.28255281  0.96320046    -0.40000
O445        O  0.58140600  0.22976492  0.92811258    -0.40100
C446        C  0.97184074  0.68713193  0.97974531    -0.12300
C447        C  0.94907367  0.69447907  0.00327821     0.04700
C448        C  0.97247124  0.73423977  0.02145780    -0.07600
C449        C  0.01902731  0.76362849  0.01755925    -0.08400
C450        C  0.04257956  0.75519008  0.99486007    -0.02900
C451        C  0.01762902  0.71711790  0.97480856     0.03900
N452        N  0.03813278  0.70657926  0.95018987     0.66400
H453        H  0.95391942  0.65717336  0.96519994     0.15300
H454        H  0.03704426  0.79250642  0.03303374     0.15000
N455        N  0.95014699  0.74425240  0.04496886     0.74100
O456        O  0.04753650  0.67656098  0.95478540    -0.39300
O457        O  0.03148786  0.71310835  0.42074651    -0.39300
O458        O  0.95518620  0.73742133  0.07330562    -0.40000
O459        O  0.93949304  0.76383834  0.54489747    -0.40100
C460        C  0.70219563  0.67174546  0.04389867    -0.12300
C461        C  0.73139994  0.67787029  0.01954426     0.04700
C462        C  0.75031194  0.71901973  0.49806235    -0.07600
C463        C  0.72880626  0.74395390  0.49878150    -0.08400
C464        C  0.68990691  0.72928282  0.02215399    -0.02900
C465        C  0.68173537  0.69695934  0.04550100     0.03900
N466        N  0.65346697  0.68981319  0.07162246     0.66400
H467        H  0.69492598  0.64690931  0.06194631     0.15300
H468        H  0.74001242  0.77249276  0.48328831     0.15000
N469        N  0.78741547  0.73325621  0.47751760     0.74100
O470        O  0.61374261  0.65617555  0.07142837    -0.39300
O471        O  0.67179776  0.70741927  0.09751542    -0.39300
O472        O  0.78018778  0.72845264  0.44842168    -0.40000
O473        O  0.82650980  0.76146640  0.48730883    -0.40100
C474        C  0.77498763  0.41049495  0.98579316    -0.12300
C475        C  0.81205024  0.44322456  0.49853701     0.04700
C476        C  0.84324926  0.43472914  0.51317979    -0.07600
C477        C  0.83407375  0.39064784  0.51525737    -0.08400
C478        C  0.79530359  0.35476886  0.50153014    -0.02900
C479        C  0.76635514  0.36680555  0.98552680     0.03900
N480        N  0.72243178  0.33118011  0.97668161     0.66400
H481        H  0.74761329  0.41521915  0.97945325     0.15300
H482        H  0.85911260  0.38499183  0.52575550     0.15000
N483        N  0.88535266  0.47054800  0.52479951     0.74100
O484        O  0.69256381  0.31360825  0.99743913    -0.39300
O485        O  0.71063446  0.32756952  0.94830967    -0.39300
O486        O  0.88765853  0.48692814  0.55151859    -0.40000
O487        O  0.91902637  0.48917278  0.50700666    -0.40100
C488        C  0.59774190  0.35585577  0.51228368    -0.12300
C489        C  0.57133156  0.34495282  0.48539606     0.04700
C490        C  0.58877716  0.37038912  0.45779941    -0.07600
C491        C  0.63148951  0.40859704  0.45853542    -0.08400
C492        C  0.65697401  0.42135632  0.48635532    -0.02900
C493        C  0.64136074  0.39257588  0.51243559     0.03900
N494        N  0.66849117  0.40030261  0.53951906     0.66400
H495        H  0.58457838  0.33567129  0.53328131     0.15300
H496        H  0.64315259  0.42995179  0.43795738     0.15000
N497        N  0.56195861  0.36064354  0.43002911     0.74100
O498        O  0.65532121  0.40720676  0.56498514    -0.39300
O499        O  0.69268662  0.38060697  0.03831181    -0.39300
O500        O  0.53182027  0.37032337  0.42890897    -0.40000
O501        O  0.55751116  0.33789835  0.90616552    -0.40100
C502        C  0.47957615  0.33315657  0.14697147    -0.12300
C503        C  0.44456304  0.33409780  0.16204599     0.04700
C504        C  0.40010148  0.30555715  0.15047270    -0.07600
C505        C  0.39239459  0.28028391  0.12301729    -0.08400
C506        C  0.42787835  0.28142313  0.10702596    -0.02900
C507        C  0.47168562  0.30677978  0.12022534     0.03900
N508        N  0.50863282  0.30517482  0.10762718     0.66400
H509        H  0.51355122  0.35305314  0.15573962     0.15300
H510        H  0.35849768  0.26028115  0.11396217     0.15000
N511        N  0.36194434  0.30028209  0.16658163     0.74100
O512        O  0.53792044  0.33828557  0.09193654    -0.39300
O513        O  0.51874859  0.27850054  0.11981322    -0.39300
O514        O  0.34046613  0.31674755  0.15466385    -0.40000
O515        O  0.34233062  0.26847058  0.18604028    -0.40100
C516        C  0.43721614  0.30701837  0.35767382    -0.12300
C517        C  0.43661932  0.34663155  0.36011933     0.04700
C518        C  0.42605347  0.35825447  0.38880947    -0.07600
C519        C  0.41964465  0.33178040  0.41544163    -0.08400
C520        C  0.42219422  0.29268769  0.41359034    -0.02900
C521        C  0.42936923  0.27957533  0.38379158     0.03900
N522        N  0.43204976  0.24031197  0.37970476     0.66400
H523        H  0.44484759  0.29778793  0.33540440     0.15300
H524        H  0.41455606  0.34293127  0.43781423     0.15000
N525        N  0.42452045  0.39838125  0.39142555     0.74100
O526        O  0.39799559  0.20468363  0.36950656    -0.39300
O527        O  0.47023924  0.24486640  0.37751150    -0.39300
O528        O  0.38927108  0.39749090  0.38321418    -0.40000
O529        O  0.46072991  0.43595513  0.39438620    -0.40100
C530        C  0.73078349  0.60117404  0.13146959    -0.12300
C531        C  0.72282278  0.56419517  0.11323170     0.04700
C532        C  0.69023602  0.52048979  0.12439793    -0.07600
C533        C  0.66472367  0.51509452  0.15116921    -0.08400
C534        C  0.67035569  0.55214836  0.16788466    -0.02900
C535        C  0.70552758  0.59569181  0.15847507     0.03900
N536        N  0.71740483  0.63511908  0.17616472     0.66400
H537        H  0.75615746  0.63494719  0.12443860     0.15300
H538        H  0.63886376  0.48139849  0.15803685     0.15000
N539        N  0.67946019  0.48057514  0.10798074     0.74100
O540        O  0.74731546  0.64763894  0.19710762    -0.39300
O541        O  0.70987910  0.66385974  0.16441555    -0.39300
O542        O  0.69701589  0.45870589  0.11728371    -0.40000
O543        O  0.64194941  0.45974075  0.09404871    -0.40100
C544        C  0.65036779  0.52966538  0.41963537    -0.12300
C545        C  0.69374044  0.56822117  0.42169889     0.04700
C546        C  0.71119904  0.59709602  0.39548050    -0.07600
C547        C  0.68436613  0.58794822  0.36861266    -0.08400
C548        C  0.64156454  0.54859364  0.36636241    -0.02900
C549        C  0.62503162  0.51887047  0.39203709     0.03900
N550        N  0.58281485  0.47727802  0.39067405     0.66400
H551        H  0.63699401  0.50601932  0.43886486     0.15300
H552        H  0.69779890  0.61080176  0.34895142     0.15000
N553        N  0.75615311  0.63516604  0.39521404     0.74100
O554        O  0.58174512  0.44269150  0.38056925    -0.39300
O555        O  0.55145931  0.47227901  0.40800854    -0.39300
O556        O  0.78654248  0.63100422  0.38292956    -0.40000
O557        O  0.76223118  0.67408660  0.39768792    -0.40100
C558        C  0.51919826  0.67222859  0.14215556    -0.12300
C559        C  0.55405896  0.67551609  0.16065618     0.04700
C560        C  0.59873294  0.70969427  0.15422741    -0.07600
C561        C  0.60777431  0.73592120  0.12729696    -0.08400
C562        C  0.57277972  0.72889270  0.10688554    -0.02900
C563        C  0.52807057  0.69900884  0.11589628     0.03900
N564        N  0.49074085  0.69395899  0.09846249     0.66400
H565        H  0.48456513  0.64783742  0.14708943     0.15300
H566        H  0.64238481  0.76047392  0.12182915     0.15000
N567        N  0.63516012  0.71871716  0.17463175     0.74100
O568        O  0.46540632  0.65688649  0.08486566    -0.39300
O569        O  0.47484057  0.71787584  0.10594209    -0.39300
O570        O  0.65877589  0.70213511  0.16833470    -0.40000
O571        O  0.65083211  0.75204600  0.19296307    -0.40100
C572        C  0.56639355  0.65935260  0.37377212    -0.12300
C573        C  0.53478812  0.65969854  0.35334128     0.04700
C574        C  0.51190822  0.68114270  0.36253145    -0.07600
C575        C  0.52020223  0.70054610  0.39209365    -0.08400
C576        C  0.55047256  0.69855235  0.41303729    -0.02900
C577        C  0.57438489  0.67853994  0.40345855     0.03900
N578        N  0.60549764  0.67575108  0.42379958     0.66400
H579        H  0.58423244  0.64296908  0.36708602     0.15300
H580        H  0.50228057  0.71687737  0.39869376     0.15000
N581        N  0.48123679  0.68490255  0.34223904     0.74100
O582        O  0.59208240  0.64092998  0.44037297    -0.39300
O583        O  0.64712121  0.70241129  0.41980610    -0.39300
O584        O  0.43961066  0.66017634  0.34733430    -0.40000
O585        O  0.49534793  0.72102168  0.32703981    -0.40100
C586        C  0.35104033  0.41662098  0.12474039    -0.12300
C587        C  0.35609774  0.45449329  0.14055108     0.04700
C588        C  0.33967028  0.47959691  0.12598075    -0.07600
C589        C  0.31596505  0.46451613  0.09752827    -0.08400
C590        C  0.30895382  0.42525402  0.08279793    -0.02900
C591        C  0.32741498  0.40162950  0.09637349     0.03900
N592        N  0.31889096  0.36002689  0.08345115     0.66400
H593        H  0.36440982  0.39751966  0.13479949     0.15300
H594        H  0.30172136  0.48287298  0.08736475     0.15000
N595        N  0.34463101  0.51908009  0.14016561     0.74100
O596        O  0.35008391  0.35918427  0.06939772    -0.39300
O597        O  0.28582065  0.32353317  0.09337116    -0.39300
O598        O  0.37346602  0.55722363  0.12929827    -0.40000
O599        O  0.31272777  0.51548414  0.15621587    -0.40100
C600        C  0.36560665  0.51780161  0.37003796    -0.12300
C601        C  0.34129669  0.48136089  0.34930609     0.04700
C602        C  0.29633309  0.44879882  0.35573043    -0.07600
C603        C  0.27739785  0.45115277  0.38361505    -0.08400
C604        C  0.30288694  0.48474521  0.40598312    -0.02900
C605        C  0.34684073  0.51959707  0.39851805     0.03900
N606        N  0.37378078  0.55515360  0.42011547     0.66400
H607        H  0.39997586  0.54374713  0.36481350     0.15300
H608        H  0.24320572  0.42461870  0.38878448     0.15000
N609        N  0.26921554  0.41327330  0.33418978     0.74100
O610        O  0.40083141  0.55174530  0.43796887    -0.39300
O611        O  0.37914190  0.59353559  0.41554779    -0.39300
O612        O  0.26153365  0.37416690  0.33960645    -0.40000
O613        O  0.24380613  0.41799357  0.31548962    -0.40100
C614        C  0.89395623  0.57667413  0.14929849    -0.12300
C615        C  0.88323180  0.53197279  0.15267071     0.04700
C616        C  0.85517082  0.50006194  0.12979854    -0.07600
C617        C  0.84094317  0.51404247  0.10356988    -0.08400
C618        C  0.85326292  0.55934573  0.09955424    -0.02900
C619        C  0.87913684  0.59050223  0.12352105     0.03900
N620        N  0.89142264  0.63661327  0.12236743     0.66400
H621        H  0.91439469  0.60157670  0.16681809     0.15300
H622        H  0.82070771  0.48917731  0.08598683     0.15000
N623        N  0.84159729  0.45363385  0.13197561     0.74100
O624        O  0.86652370  0.64768483  0.13577035    -0.39300
O625        O  0.93199252  0.66652432  0.11748595    -0.39300
O626        O  0.80174127  0.42514673  0.13988762    -0.40000
O627        O  0.86393538  0.44018738  0.11768002    -0.40100
C628        C  0.89667357  0.58570754  0.39316238    -0.12300
C629        C  0.86228680  0.54843242  0.40882282     0.04700
C630        C  0.84613914  0.50465973  0.39628669    -0.07600
C631        C  0.86498891  0.49947488  0.36919982    -0.08400
C632        C  0.89982266  0.53653351  0.35350033    -0.02900
C633        C  0.91502855  0.58029753  0.36550179     0.03900
N634        N  0.94679682  0.61991248  0.34901396     0.66400
H635        H  0.90786223  0.61941986  0.40154413     0.15300
H636        H  0.85162397  0.46549641  0.36053381     0.15000
N637        N  0.81151904  0.46446571  0.41105479     0.74100
O638        O  0.93236907  0.63649468  0.32924983    -0.39300
O639        O  0.98545253  0.64484490  0.36074692    -0.39300
O640        O  0.77258739  0.44439127  0.39906293    -0.40000
O641        O  0.82323183  0.44153018  0.42684409    -0.40100
C642        C  0.84841005  0.29127446  0.10894091    -0.12300
C643        C  0.88126900  0.30273590  0.08592458     0.04700
C644        C  0.92543600  0.33909732  0.09144891    -0.07600
C645        C  0.93623471  0.36156024  0.12026877    -0.08400
C646        C  0.90379853  0.34851031  0.14380085    -0.02900
C647        C  0.85923651  0.31374646  0.13769714     0.03900
N648        N  0.82549957  0.29790990  0.16126769     0.66400
H649        H  0.81428227  0.26361098  0.10498944     0.15300
H650        H  0.97067448  0.38821236  0.12473354     0.15000
N651        N  0.96059819  0.35118437  0.06944759     0.74100
O652        O  0.79764629  0.31061740  0.16057682    -0.39300
O653        O  0.81601328  0.26286808  0.17649471    -0.39300
O654        O  0.97590326  0.38741014  0.05418526    -0.40000
O655        O  0.98392858  0.33325487  0.07179613    -0.40100
C656        C  0.90697819  0.36960000  0.41145389    -0.12300
C657        C  0.88708642  0.32336190  0.41600382     0.04700
C658        C  0.88811414  0.29606149  0.39188015    -0.07600
C659        C  0.90766850  0.31566991  0.36321160    -0.08400
C660        C  0.92458456  0.36148577  0.35804248    -0.02900
C661        C  0.92486593  0.38867598  0.38248994     0.03900
N662        N  0.94126410  0.43538284  0.37797985     0.66400
H663        H  0.90637407  0.39059352  0.42985155     0.15300
H664        H  0.90758814  0.29471564  0.34451769     0.15000
N665        N  0.87009343  0.24877067  0.39615807     0.74100
O666        O  0.91311278  0.44746463  0.37518590    -0.39300
O667        O  0.98083302  0.46404853  0.38663120    -0.39300
O668        O  0.83095719  0.22093099  0.38621700    -0.40000
O669        O  0.89660057  0.23515754  0.40179365    -0.40100
C670        C  0.12074715  0.42633889  0.13888149    -0.12300
C671        C  0.12183853  0.46704247  0.13869406     0.04700
C672        C  0.14300881  0.49772092  0.11373560    -0.07600
C673        C  0.16081453  0.48601435  0.08892828    -0.08400
C674        C  0.15846048  0.44449933  0.08874785    -0.02900
C675        C  0.13934905  0.41511757  0.11463437     0.03900
N676        N  0.13911116  0.37401936  0.11724016     0.66400
H677        H  0.10597414  0.40313982  0.15830174     0.15300
H678        H  0.17525227  0.50896807  0.06935463     0.15000
N679        N  0.14528291  0.53992028  0.11229101     0.74100
O680        O  0.17013618  0.37407014  0.13264023    -0.39300
O681        O  0.10284467  0.33703024  0.11242768    -0.39300
O682        O  0.18213292  0.57554652  0.11869879    -0.40000
O683        O  0.11657355  0.54274880  0.09595575    -0.40100
C684        C  0.10402436  0.43256390  0.36386468    -0.12300
C685        C  0.13643236  0.46646602  0.34432271     0.04700
C686        C  0.18172747  0.48995890  0.35453001    -0.07600
C687        C  0.19301977  0.48042896  0.38408496    -0.08400
C688        C  0.16027805  0.44745615  0.40416422    -0.02900
C689        C  0.11528067  0.42315953  0.39339492     0.03900
N690        N  0.07962643  0.39194376  0.41307091     0.66400
H691        H  0.06899791  0.41421106  0.35676686     0.15300
H692        H  0.22785342  0.49957992  0.39148915     0.15000
N693        N  0.21715735  0.52189776  0.33483338     0.74100
O694        O  0.05848954  0.40589253  0.42834744    -0.39300
O695        O  0.06088717  0.35028854  0.40744121    -0.39300
O696        O  0.23674207  0.56329699  0.34147568    -0.40000
O697        O  0.23725350  0.50844332  0.31786570    -0.40100
C698        C  0.06143657  0.63826141  0.11646030    -0.12300
C699        C  0.09688862  0.64623792  0.13671544     0.04700
C700        C  0.14129120  0.67800316  0.12800904    -0.07600
C701        C  0.14929856  0.70333229  0.10072902    -0.08400
C702        C  0.11387947  0.69745895  0.08127149    -0.02900
C703        C  0.06953084  0.66289731  0.08859148     0.03900
N704        N  0.03223890  0.65317154  0.06886180     0.66400
H705        H  0.02710016  0.61320928  0.12254070     0.15300
H706        H  0.18374435  0.72874911  0.09514864     0.15000
N707        N  0.17852931  0.68782270  0.14776394     0.74100
O708        O  0.01666994  0.61990883  0.05047119    -0.39300
O709        O  0.00786074  0.66860732  0.07607636    -0.39300
O710        O  0.20232188  0.67156523  0.14097333    -0.40000
O711        O  0.19441535  0.72137280  0.16590093    -0.40100
C712        C  0.13645179  0.69680681  0.34899042    -0.12300
C713        C  0.13432776  0.65608124  0.34472887     0.04700
C714        C  0.15271458  0.64074203  0.36749705    -0.07600
C715        C  0.16923723  0.66442349  0.39556774    -0.08400
C716        C  0.16847866  0.70366788  0.40075944    -0.02900
C717        C  0.15374162  0.72103693  0.37656597     0.03900
N718        N  0.15524909  0.76274550  0.37959869     0.66400
H719        H  0.12385559  0.70951763  0.33104696     0.15300
H720        H  0.18053642  0.65092330  0.41383661     0.15000
N721        N  0.15237940  0.59988791  0.36346929     0.74100
O722        O  0.18858731  0.79810958  0.36865523    -0.39300
O723        O  0.11891993  0.76170582  0.38342673    -0.39300
O724        O  0.18929873  0.60213248  0.35988576    -0.40000
O725        O  0.11841698  0.56306481  0.37199535    -0.40100
C726        C  0.30465884  0.81923193  0.09933724    -0.12300
C727        C  0.29929513  0.85050340  0.08216482     0.04700
C728        C  0.32316049  0.89615585  0.09168264    -0.07600
C729        C  0.34883633  0.90899124  0.11919841    -0.08400
C730        C  0.35190062  0.87738564  0.13777315    -0.02900
C731        C  0.33063144  0.83215546  0.12701661     0.03900
N732        N  0.33203124  0.79804865  0.14475293     0.66400
H733        H  0.28672235  0.78419392  0.09220216     0.15300
H734        H  0.36620787  0.94407875  0.12619007     0.15000
N735        N  0.32274797  0.93036860  0.07330160     0.74100
O736        O  0.30153174  0.77568373  0.16449367    -0.39300
O737        O  0.35454212  0.78193057  0.13451205    -0.39300
O738        O  0.30069646  0.94738918  0.08278192    -0.40000
O739        O  0.35372649  0.95192530  0.05372591    -0.40100
C740        C  0.32151960  0.83424061  0.35405477    -0.12300
C741        C  0.33648982  0.87821588  0.34444616     0.04700
C742        C  0.32144631  0.90319940  0.36070192    -0.07600
C743        C  0.29258194  0.88394752  0.38635736    -0.08400
C744        C  0.28108833  0.84145397  0.39776804    -0.02900
C745        C  0.29487595  0.81593155  0.38053095     0.03900
N746        N  0.28398585  0.77183440  0.38971988     0.66400
H747        H  0.33154147  0.81404322  0.34159538     0.15300
H748        H  0.28141832  0.90325600  0.39840337     0.15000
N749        N  0.33877152  0.94966518  0.35394550     0.74100
O750        O  0.25691191  0.73900064  0.37273054    -0.39300
O751        O  0.31247849  0.76826299  0.40572904    -0.39300
O752        O  0.31321507  0.96101514  0.34156150    -0.40000
O753        O  0.37376426  0.97905160  0.36819437    -0.40100
C754        C  0.51798166  0.86376253  0.12520622    -0.12300
C755        C  0.54414613  0.87120930  0.15190245     0.04700
C756        C  0.57952770  0.86307309  0.15110442    -0.07600
C757        C  0.59063812  0.85116761  0.12278421    -0.08400
C758        C  0.56622691  0.84648409  0.09517166    -0.02900
C759        C  0.52845898  0.85130502  0.09699741     0.03900
N760        N  0.50299656  0.84843545  0.06994523     0.66400
H761        H  0.49072167  0.87010753  0.12576357     0.15300
H762        H  0.61852064  0.84575785  0.12236663     0.15000
N763        N  0.60332562  0.86550284  0.17915669     0.74100
O764        O  0.46516178  0.81300342  0.06546678    -0.39300
O765        O  0.51110888  0.88472170  0.05728020    -0.39300
O766        O  0.58323080  0.83684812  0.20057652    -0.40000
O767        O  0.64141739  0.90005737  0.18466698    -0.40100
C768        C  0.51772887  0.81802191  0.38865606    -0.12300
C769        C  0.56102107  0.83898739  0.40208233     0.04700
C770        C  0.59650529  0.87621979  0.38633769    -0.07600
C771        C  0.58742212  0.89334544  0.35941412    -0.08400
C772        C  0.54332435  0.87476872  0.34779596    -0.02900
C773        C  0.50835158  0.83596227  0.36239367     0.03900
N774        N  0.46277808  0.81569817  0.35198365     0.66400
H775        H  0.49033820  0.78847038  0.39950606     0.15300
H776        H  0.61537109  0.92192125  0.34802789     0.15000
N777        N  0.64210058  0.89665524  0.39661343     0.74100
O778        O  0.44803361  0.78665876  0.33037943    -0.39300
O779        O  0.43895027  0.83055271  0.36181150    -0.39300
O780        O  0.66727932  0.88635276  0.38274636    -0.40000
O781        O  0.65988980  0.93373830  0.41102111    -0.40100
C782        C  0.70604477  0.10304644  0.10577026    -0.12300
C783        C  0.71036031  0.14150350  0.09134055     0.04700
C784        C  0.68737949  0.16105141  0.10433287    -0.07600
C785        C  0.66071328  0.14166251  0.13095144    -0.08400
C786        C  0.65666015  0.10326462  0.14540158    -0.02900
C787        C  0.67985826  0.08398723  0.13240152     0.03900
N788        N  0.67758984  0.04506471  0.14567985     0.66400
H789        H  0.72286143  0.08705542  0.09618138     0.15300
H790        H  0.64379774  0.15747597  0.14045933     0.15000
N791        N  0.69193042  0.20147343  0.09192844     0.74100
O792        O  0.65111607  0.00688559  0.13367764    -0.39300
O793        O  0.70987727  0.05026184  0.16247987    -0.39300
O794        O  0.65826825  0.19960390  0.07915834    -0.40000
O795        O  0.72321037  0.23892134  0.10227892    -0.40100
C796        C  0.65892962  0.14420087  0.36109063    -0.12300
C797        C  0.65722131  0.10644629  0.34836443     0.04700
C798        C  0.68325026  0.09049624  0.36238711    -0.07600
C799        C  0.70939474  0.11209555  0.38902597    -0.08400
C800        C  0.70802654  0.14753571  0.40284432    -0.02900
C801        C  0.68329187  0.16450667  0.38799399     0.03900
N802        N  0.68202333  0.20239223  0.39973192     0.66400
H803        H  0.64081463  0.15831579  0.35068285     0.15300
H804        H  0.73099176  0.10149371  0.39873913     0.15000
N805        N  0.68327718  0.05224576  0.35051670     0.74100
O806        O  0.70696049  0.24064130  0.38740958    -0.39300
O807        O  0.64867074  0.19559324  0.41556410    -0.39300
O808        O  0.71738451  0.05842776  0.33599786    -0.40000
O809        O  0.65699817  0.01410908  0.36252334    -0.40100
C810        C  0.42056043  0.11236980  0.14832955    -0.12300
C811        C  0.46144137  0.11377221  0.14882520     0.04700
C812        C  0.49366757  0.13897002  0.12571397    -0.07600
C813        C  0.48305472  0.15896640  0.10132800    -0.08400
C814        C  0.44074153  0.15479812  0.09944387    -0.02900
C815        C  0.41017661  0.13302940  0.12430574     0.03900
N816        N  0.36839853  0.13125673  0.12578782     0.66400
H817        H  0.39617177  0.09472058  0.16657902     0.15300
H818        H  0.50747416  0.17594260  0.08299055     0.15000
N819        N  0.53605751  0.14196629  0.12514337     0.74100
O820        O  0.33292362  0.09589702  0.11686479    -0.39300
O821        O  0.36531770  0.15810801  0.14387211    -0.39300
O822        O  0.54122802  0.11685959  0.10664924    -0.40000
O823        O  0.57036090  0.17714750  0.13560679    -0.40100
C824        C  0.48762365  0.14069202  0.40000452    -0.12300
C825        C  0.44423053  0.12913654  0.40954470     0.04700
C826        C  0.40753949  0.09967946  0.39043207    -0.07600
C827        C  0.41460082  0.08335567  0.36217209    -0.08400
C828        C  0.45805698  0.09532557  0.35239820    -0.02900
C829        C  0.49478542  0.12382109  0.37222062     0.03900
N830        N  0.53943084  0.13473223  0.36536562     0.66400
H831        H  0.51649636  0.16346536  0.41424513     0.15300
H832        H  0.38581769  0.06184361  0.34759041     0.15000
N833        N  0.36307389  0.08759373  0.39851316     0.74100
O834        O  0.56696751  0.17257380  0.35345245    -0.39300
O835        O  0.55409593  0.11218949  0.37825377    -0.39300
O836        O  0.34532525  0.10673191  0.38485903    -0.40000
O837        O  0.33843850  0.05125879  0.41309278    -0.40100
C838        C  0.45835357  0.07184473  0.82262204     0.42400
N839        N  0.48892713  0.06168998  0.78235949     0.01300
C840        C  0.39816865  0.87223730  0.68626411    -0.06600
H841        H  0.39417711  0.84563516  0.81237413     0.06800
C842        C  0.56556142  0.93286533  0.80604373    -0.06900
Co843      Co  0.42384200  0.97990521  0.74479111     0.74200
N844        N  0.41145358  0.90011100  0.78001559    -0.26100
Co845      Co  0.45706312  0.90133476  0.74737165     0.74100
C846        C  0.53265802  0.89035666  0.82060804     0.42500
N847        N  0.58994827  0.03818532  0.78434533     0.00900
N848        N  0.50081982  0.90516078  0.78307631     0.01000
N849        N  0.37853849  0.92461440  0.68473034    -0.47000
H850        H  0.38865394  0.01134980  0.80899207     0.06800
N851        N  0.39905645  0.92998744  0.77822518     0.01300
N852        N  0.50382880  0.90582807  0.71464011     0.01000
C853        C  0.53762336  0.89251210  0.67867772     0.42600
N854        N  0.57714664  0.06771835  0.78384449    -0.25600
C855        C  0.42910206  0.03835116  0.68844885    -0.06500
N856        N  0.49760680  0.08775571  0.80728386    -0.46700
N857        N  0.49702985  0.87696883  0.69190283    -0.46900
C858        C  0.46299887  0.08159650  0.67496322     0.42400
N859        N  0.40347999  0.93006447  0.70981214     0.01300
N860        N  0.57928883  0.06905473  0.71553784    -0.25600
N861        N  0.44624971  0.02908532  0.78032211    -0.26100
N862        N  0.59214100  0.03950952  0.71601617     0.00900
H863        H  0.59439628  0.12453169  0.68500841     0.06800
H864        H  0.60568995  0.95590605  0.69054344     0.06800
N865        N  0.41556899  0.89990963  0.71119879    -0.26100
N866        N  0.54302872  0.93899960  0.78325151    -0.25800
N867        N  0.49219629  0.06522953  0.71331547     0.01300
C868        C  0.36385835  0.89060823  0.81826141     0.42700
C869        C  0.59738931  0.09666149  0.80751138    -0.07000
N870        N  0.54607733  0.93958963  0.71618480    -0.25800
H871        H  0.60112198  0.95492249  0.81065076     0.06800
N872        N  0.37088149  0.92550400  0.80043827    -0.47000
H873        H  0.59408372  0.12521253  0.81248242     0.06800
C874        C  0.62570372  0.08118432  0.67621936     0.42500
C875        C  0.42409268  0.03327555  0.80441073    -0.06500
Co876      Co  0.53493381  0.06706571  0.74880429     0.73800
N877        N  0.61871716  0.04545453  0.80733213    -0.46700
C878        C  0.37348351  0.88871682  0.66861599     0.42800
N879        N  0.50137303  0.09641443  0.69166179    -0.46700
Co880      Co  0.56847290  0.98925823  0.74994434     0.73900
C881        C  0.56999476  0.93399507  0.69442387    -0.07000
C882        C  0.39055481  0.87325990  0.80468833    -0.06600
N883        N  0.45016588  0.03121800  0.71187853    -0.26100
N884        N  0.49312983  0.87495634  0.80511018    -0.46900
H885        H  0.40332476  0.84495462  0.68092304     0.06800
C886        C  0.59877781  0.09691641  0.69122691    -0.07000
Cl887      Cl  0.49600593  0.98431752  0.74768619    -0.50000
C888        C  0.62488262  0.08177835  0.82311874     0.42500
H889        H  0.39395880  0.01645070  0.68243069     0.06800
N890        N  0.61990917  0.04558442  0.69298508    -0.46700
C891        C  0.11195532  0.63753468  0.81684015     0.42400
N892        N  0.09634830  0.59564169  0.77712003     0.01300
C893        C  0.89445455  0.48454410  0.69560821    -0.06600
H894        H  0.88232374  0.45857603  0.81907338     0.06800
C895        C  0.97864963  0.39097478  0.80731944    -0.06900
Co896      Co  0.00855503  0.57255616  0.74830357     0.74200
N897        N  0.93532574  0.50048144  0.78659972    -0.26100
Co898      Co  0.93445000  0.45788251  0.75118232     0.74100
C899        C  0.94143915  0.38568626  0.82593078     0.42500
N900        N  0.07804499  0.47234943  0.77654802     0.00900
N901        N  0.94532243  0.42105653  0.78419622     0.01000
N902        N  0.94318460  0.56001717  0.69513845    -0.47000
H903        H  0.04833535  0.64106036  0.81113253     0.06800
N904        N  0.96463022  0.54434087  0.78575837     0.01300
N905        N  0.93643019  0.41726392  0.71582228     0.01000
C906        C  0.92387972  0.37694752  0.67487824     0.42600
N907        N  0.10685093  0.51630469  0.77627003    -0.25600
C908        C  0.05101781  0.62051776  0.68612335    -0.06500
N909        N  0.12649595  0.61557159  0.79966057    -0.46700
N910        N  0.90707237  0.39678240  0.69259511    -0.46900
C911        C  0.08886111  0.62862768  0.66722729     0.42400
N912        N  0.95390597  0.54047223  0.71723178     0.01300
N913        N  0.09904542  0.51555739  0.70813359    -0.25600
N914        N  0.06286103  0.60279240  0.77891612    -0.26100
N915        N  0.07113414  0.47148062  0.70855047     0.00900
H916        H  0.15433154  0.56071337  0.67853708     0.06800
H917        H  0.98963578  0.37765926  0.68126813     0.06800
N918        N  0.92589617  0.49644995  0.71805876    -0.26100
N919        N  0.97893845  0.41406801  0.78197575    -0.25800
N920        N  0.08764656  0.59359307  0.70891796     0.01300
C921        C  0.92774061  0.53517424  0.82798155     0.42700
C922        C  0.13753696  0.52621619  0.79924244    -0.07000
N923        N  0.97125295  0.41212672  0.71389051    -0.25800
H924        H  0.00265740  0.38115304  0.81272380     0.06800
N925        N  0.96103413  0.56632828  0.80977400    -0.47000
H926        H  0.16531297  0.55960569  0.80498193     0.06800
C927        C  0.11331358  0.48443999  0.66874416     0.42500
C928        C  0.07020834  0.62975810  0.80329656    -0.06500
Co929      Co  0.09861020  0.55616474  0.74264576     0.73800
N930        N  0.08699862  0.45129514  0.79847832    -0.46700
C931        C  0.90625420  0.52697820  0.68026657     0.42800
N932        N  0.11035577  0.61119528  0.68264099    -0.46700
Co933      Co  0.02470348  0.44139223  0.74512470     0.73900
C934        C  0.96613689  0.38700819  0.68893377    -0.07000
C935        C  0.90988851  0.49152958  0.81221990    -0.06600
N936        N  0.05279554  0.59860120  0.71126938    -0.26100
N937        N  0.92225386  0.40491241  0.81029404    -0.46900
H938        H  0.86667673  0.45065590  0.69117373     0.06800
C939        C  0.12687838  0.52702247  0.68384848    -0.07000
Cl940      Cl  0.01654476  0.50690001  0.74679542    -0.50000
C941        C  0.12413064  0.48254645  0.81394150     0.42500
H942        H  0.02593826  0.62913496  0.68144863     0.06800
N943        N  0.07907469  0.45126837  0.68551523    -0.46700
C944        C  0.36380582  0.48233662  0.82058953     0.42400
N945        N  0.41036709  0.50568920  0.78271094     0.01300
C946        C  0.50263309  0.39854079  0.70481233    -0.06600
H947        H  0.52862634  0.40902263  0.82615279     0.06800
C948        C  0.61596359  0.58144356  0.81851986    -0.06900
Co949      Co  0.42551862  0.43562370  0.75585631     0.74200
N950        N  0.49204275  0.42712915  0.79444741    -0.26100
Co951      Co  0.53877842  0.46944719  0.76069767     0.74100
C952        C  0.61926492  0.54795696  0.83685377     0.42500
N953        N  0.53886960  0.60475636  0.78675946     0.00900
N954        N  0.57872467  0.51597988  0.79594723     0.01000
N955        N  0.42939796  0.37703310  0.70433862    -0.47000
H956        H  0.35286602  0.41087763  0.81790912     0.06800
N957        N  0.44944403  0.41562968  0.79322409     0.01300
N958        N  0.58585365  0.51463889  0.72695333     0.01000
C959        C  0.63924277  0.54819345  0.69288732     0.42600
N960        N  0.49627215  0.59242391  0.78400233    -0.25600
C961        C  0.38213893  0.43483123  0.69239022    -0.06500
N962        N  0.39100639  0.51857555  0.80308049    -0.46700
N963        N  0.61062075  0.50778097  0.70684777    -0.46900
C964        C  0.38076596  0.46793160  0.67232838     0.42400
N965        N  0.45262223  0.40906012  0.72545464     0.01300
N966        N  0.50266520  0.58957290  0.71723401    -0.25600
N967        N  0.39854562  0.46315871  0.78595390    -0.26100
N968        N  0.54560111  0.60320324  0.71982040     0.00900
H969        H  0.46595200  0.61000654  0.68851228     0.06800
H970        H  0.64458180  0.61617385  0.70123793     0.06800
N971        N  0.49573829  0.42245954  0.72634831    -0.26100
N972        N  0.58982781  0.55850194  0.79396979    -0.25800
N973        N  0.41653467  0.50037925  0.71461768     0.01300
C974        C  0.45333770  0.38138695  0.83354057     0.42700
C975        C  0.48680849  0.61321325  0.80626788    -0.07000
N976        N  0.59653305  0.55708763  0.72659476    -0.25800
H977        H  0.63049346  0.61703095  0.82307225     0.06800
N978        N  0.42501473  0.38806810  0.81612866    -0.47000
H979        H  0.45435878  0.60907036  0.81030518     0.06800
C980        C  0.54260331  0.64289731  0.68274031     0.42500
C981        C  0.36869021  0.44519505  0.80949470    -0.06500
Co982      Co  0.45583176  0.54721165  0.74939397     0.73800
N983        N  0.55957564  0.63294337  0.81012507    -0.46700
C984        C  0.45828530  0.36814795  0.69011883     0.42800
N985        N  0.40261175  0.50800969  0.68755525    -0.46700
Co986      Co  0.56824868  0.58137663  0.75677211     0.73900
C987        C  0.62933108  0.58058851  0.70589541    -0.07000
C988        C  0.49763409  0.40670881  0.81922922    -0.06600
N989        N  0.40501570  0.45788500  0.71780611    -0.26100
N990        N  0.59550521  0.50809574  0.82151212    -0.46900
H991        H  0.53438596  0.40101883  0.70079599     0.06800
C992        C  0.49731264  0.61240980  0.69432525    -0.07000
Cl993      Cl  0.49716429  0.50830183  0.75560126    -0.50000
C994        C  0.52910374  0.64015653  0.82336426     0.42500
H995        H  0.36904375  0.39943948  0.68815914     0.06800
N996        N  0.57091648  0.63539266  0.69958624    -0.46700
O997        O  0.78983619  0.49536286  0.98247360    -0.80200
O998        O  0.77391433  0.61589049  0.57138345    -0.80200
O999        O  0.81765680  0.54338715  0.55022658    -0.80200
O1000       O  0.71069201  0.48750556  0.51421534    -0.80200
O1001       O  0.85099734  0.61395460  0.56556480    -0.80300
O1002       O  0.70976993  0.48962995  0.96319181    -0.80200
O1003       O  0.73619484  0.54370571  0.56297252    -0.80200
O1004       O  0.86059898  0.52787659  0.99987852    -0.80200
C1005       C  0.82395357  0.49271912  0.99154636     1.09500
C1006       C  0.74625348  0.57597584  0.58103906     1.09400
C1007       C  0.83840997  0.57303178  0.57119078     1.09500
C1008       C  0.69334564  0.46657639  0.98721134     1.09400
O1009       O  0.76230124  0.58393063  0.94667000    -0.80200
O1010       O  0.87296761  0.66601350  0.50826470    -0.80300
O1011       O  0.85588068  0.58229418  0.95729136    -0.80200
O1012       O  0.72511146  0.60850693  0.52559988    -0.80200
O1013       O  0.79277021  0.66390518  0.51203912    -0.80200
O1014       O  0.79573397  0.53984244  0.93062887    -0.80200
O1015       O  0.70159261  0.55517482  0.97533723    -0.80200
O1016       O  0.89248259  0.61853102  0.01416348    -0.80200
Co1017     Co  0.77078912  0.54060238  0.96950603     1.51500
Co1018     Co  0.82110727  0.63689683  0.53668231     1.51700
Co1019     Co  0.83358117  0.56235970  0.00359011     1.51600
Co1020     Co  0.72335238  0.55043795  0.51905198     1.51500
O1021       O  0.79008977  0.58172295  0.50697552    -1.42100
C1022       C  0.72235768  0.57385166  0.94981578     1.09400
C1023       C  0.90265122  0.65569203  0.50949586     1.09500
C1024       C  0.83708022  0.56246237  0.93128485     1.09400
C1025       C  0.75168761  0.64922314  0.51691470     1.09400
O1026       O  0.71609565  0.21718473  0.99684900    -0.80200
O1027       O  0.84061777  0.23355752  0.56554213    -0.80200
O1028       O  0.72838242  0.17655518  0.54397741    -0.80200
O1029       O  0.81379483  0.29846783  0.51488736    -0.80200
O1030       O  0.76708574  0.14795378  0.56164241    -0.80300
O1031       O  0.77375283  0.29183736  0.96386605    -0.80200
O1032       O  0.88292203  0.29167260  0.53422273    -0.80200
O1033       O  0.67539387  0.14201647  0.99208164    -0.80200
C1034       C  0.67719158  0.17931260  0.99496815     1.09500
C1035       C  0.86824999  0.27533513  0.56118149     1.09400
C1036       C  0.73603411  0.15605580  0.56523841     1.09500
C1037       C  0.79484094  0.31425857  0.98801769     1.09400
O1038       O  0.83136516  0.26708135  0.94427099    -0.80200
O1039       O  0.80496938  0.12787306  0.51062745    -0.80300
O1040       O  0.73919494  0.14880909  0.95208887    -0.80200
O1041       O  0.88665700  0.24989255  0.47910555    -0.80200
O1042       O  0.88747958  0.21341489  0.52096514    -0.80200
O1043       O  0.74582523  0.21098490  0.93719402    -0.80200
O1044       O  0.88565855  0.32481061  0.97052403    -0.80200
O1045       O  0.73134373  0.10753592  0.00660920    -0.80200
Co1046     Co  0.77890665  0.24209501  0.97537051     1.51500
Co1047     Co  0.82394998  0.18209024  0.53738233     1.51700
Co1048     Co  0.73764898  0.16641361  0.99648941     1.51600
Co1049     Co  0.84609852  0.26964075  0.49542568     1.51500
O1050       O  0.80053110  0.20733147  0.50479132    -1.42100
C1051       C  0.86840269  0.30548718  0.94448164     1.09400
C1052       C  0.76350346  0.09832928  0.50569876     1.09500
C1053       C  0.73572377  0.17181501  0.93058610     1.09400
C1054       C  0.90796863  0.23927450  0.49794487     1.09400
O1055       O  0.29226890  0.77015979  0.98650960    -0.80200
O1056       O  0.16157605  0.76880244  0.55701422    -0.80200
O1057       O  0.26816125  0.81200727  0.53231028    -0.80200
O1058       O  0.14928660  0.68530213  0.49391477    -0.80200
O1059       O  0.24032541  0.84912550  0.55304584    -0.80300
O1060       O  0.20901792  0.72096204  0.02137044    -0.80200
O1061       O  0.10671544  0.71771067  0.52709541    -0.80200
O1062       O  0.32070424  0.84485632  0.98547826    -0.80200
C1063       C  0.32668312  0.81115369  0.98533502     1.09500
C1064       C  0.12819354  0.72942252  0.55295223     1.09400
C1065       C  0.26752179  0.83558481  0.55435906     1.09500
C1066       C  0.17546514  0.68374469  0.01193226     1.09400
O1067       O  0.20187880  0.72111661  0.95296546    -0.80200
O1068       O  0.20382283  0.87780544  0.50542236    -0.80300
O1069       O  0.25216849  0.84944206  0.94931113    -0.80200
O1070       O  0.11283802  0.77177302  0.47210327    -0.80200
O1071       O  0.11568924  0.79864337  0.51818031    -0.80200
O1072       O  0.25690755  0.79274120  0.94467853    -0.80200
O1073       O  0.15246344  0.74074665  0.94326203    -0.80200
O1074       O  0.27242557  0.88842228  0.00384965    -0.80200
Co1075     Co  0.23437054  0.76711439  0.98772015     1.51500
Co1076     Co  0.18094095  0.82156785  0.53055377     1.50200
Co1077     Co  0.25677934  0.82664084  0.99136233     1.51600
Co1078     Co  0.13381499  0.73187704  0.48365101     1.51500
O1079       O  0.19237966  0.78949708  0.49432155    -1.42100
C1080       C  0.17414632  0.72342641  0.93441440     1.09400
C1081       C  0.24603392  0.90410300  0.50120857     1.09500
C1082       C  0.26047670  0.82642387  0.93186471     1.09400
C1083       C  0.09321150  0.77834315  0.49368594     1.09400
O1084       O  0.53504003  0.85467449  0.99078725    -0.80200
O1085       O  0.55860295  0.74067913  0.55168450    -0.80200
O1086       O  0.48871735  0.70197699  0.01106105    -0.80200
O1087       O  0.62890196  0.85549053  0.56103587    -0.80200
O1088       O  0.52984295  0.67049822  0.51157974    -0.80300
O1089       O  0.56016079  0.82559863  0.54185329    -0.80200
O1090       O  0.62883414  0.77744928  0.56629734    -0.80200
O1091       O  0.48929182  0.78114458  0.99498616    -0.80200
C1092       C  0.49524093  0.82010051  0.98971367     1.09500
C1093       C  0.58798440  0.75151742  0.57274618     1.09400
C1094       C  0.48820890  0.66520642  0.01620367     1.09500
C1095       C  0.58801953  0.84411961  0.56415748     1.09400
O1096       O  0.62734830  0.89049489  0.00867074    -0.80200
O1097       O  0.58100606  0.71853716  0.96696831    -0.80300
O1098       O  0.53088736  0.78207033  0.94535040    -0.80200
O1099       O  0.68256724  0.79524912  0.51350038    -0.80200
O1100       O  0.62273488  0.72643443  0.51996723    -0.80200
O1101       O  0.59326374  0.84451896  0.95371491    -0.80200
O1102       O  0.68703825  0.88018378  0.50779959    -0.80200
O1103       O  0.51968744  0.71633827  0.95566546    -0.80200
Co1104     Co  0.57404001  0.83073081  0.99829427     1.51500
Co1105     Co  0.57244634  0.73425294  0.50758913     1.51700
Co1106     Co  0.53223949  0.75975472  0.98832459     1.51600
Co1107     Co  0.65409233  0.82587931  0.53468596     1.51500
O1108       O  0.60377243  0.79830879  0.50155347    -1.42100
C1109       C  0.67404696  0.90799298  0.50492667     1.09400
C1110       C  0.55002625  0.70962217  0.94749820     1.09500
C1111       C  0.56237809  0.81917379  0.93475132     1.09400
C1112       C  0.66490079  0.75259034  0.51668754     1.09400
O1113       O  0.15003848  0.41076586  0.95234834    -0.80200
O1114       O  0.24191465  0.35364881  0.47494872    -0.80200
O1115       O  0.28384902  0.50232079  0.95739247    -0.80200
O1116       O  0.13135265  0.32993629  0.51215449    -0.80200
O1117       O  0.26902322  0.43431138  0.94505250    -0.80300
O1118       O  0.11489002  0.38159243  0.00734900    -0.80200
O1119       O  0.21266591  0.32643742  0.52060164    -0.80200
O1120       O  0.20745469  0.47457305  0.94755883    -0.80200
C1121       C  0.17328452  0.44305165  0.93478718     1.09500
C1122       C  0.23304102  0.32531319  0.49630466     1.09400
C1123       C  0.28457584  0.47498145  0.93767048     1.09500
C1124       C  0.10424058  0.34414327  0.50978231     1.09400
O1125       O  0.19929986  0.46319790  0.54049573    -0.80200
O1126       O  0.32099563  0.48045523  0.49980863    -0.80300
O1127       O  0.22887867  0.53256750  0.99335616    -0.80200
O1128       O  0.24384613  0.40312478  0.56093413    -0.80200
O1129       O  0.29337012  0.40240005  0.53001463    -0.80200
O1130       O  0.15504895  0.48172780  0.99344460    -0.80200
O1131       O  0.16404068  0.39566386  0.55993782    -0.80200
O1132       O  0.27604093  0.49906872  0.02651160    -0.80200
Co1133     Co  0.17469555  0.43585705  0.99497051     1.51500
Co1134     Co  0.27722518  0.41692564  0.48782160     1.51700
Co1135     Co  0.23401490  0.47856037  0.99040381     1.51600
Co1136     Co  0.18989893  0.36678362  0.53517775     1.51500
O1137       O  0.21811946  0.41291700  0.49854425    -1.42100
C1138       C  0.18038811  0.43728974  0.56334944     1.09400
C1139       C  0.31425988  0.50610092  0.01948144     1.09500
C1140       C  0.18807355  0.52369109  0.99547001     1.09400
C1141       C  0.28269647  0.41061322  0.55635429     1.09400
O1142       O  0.47371432  0.14216244  0.00428397    -0.80200
O1143       O  0.45034184  0.26956783  0.55871776    -0.80200
O1144       O  0.50222398  0.27997035  0.95993628    -0.80200
O1145       O  0.38338313  0.15197184  0.56474658    -0.80200
O1146       O  0.50490995  0.29203105  0.51166464    -0.80300
O1147       O  0.45388502  0.18468811  0.55007984    -0.80200
O1148       O  0.37901354  0.22843108  0.56836463    -0.80200
O1149       O  0.50568789  0.21119341  0.98629918    -0.80200
C1150       C  0.50897624  0.17728371  0.99506461     1.09500
C1151       C  0.41876417  0.25753985  0.57747659     1.09400
C1152       C  0.52435651  0.30244066  0.98341914     1.09500
C1153       C  0.42366932  0.16296584  0.57041934     1.09400
O1154       O  0.38697691  0.11259368  0.01682873    -0.80200
O1155       O  0.43890321  0.29460710  0.96663174    -0.80300
O1156       O  0.47087485  0.20246117  0.92902418    -0.80200
O1157       O  0.32947864  0.20409887  0.50973860    -0.80200
O1158       O  0.38289405  0.27483365  0.51927458    -0.80200
O1159       O  0.42130010  0.14575902  0.95819974    -0.80200
O1160       O  0.33064244  0.12462611  0.50774355    -0.80200
O1161       O  0.41190042  0.22939147  0.94196041    -0.80200
Co1162     Co  0.44034004  0.17148472  0.00469605     1.51500
Co1163     Co  0.44188438  0.27738117  0.51413250     1.51700
Co1164     Co  0.45241246  0.21640633  0.96616239     1.51600
Co1165     Co  0.35909844  0.17902830  0.53496180     1.51500
O1166       O  0.41407036  0.20957139  0.50496265    -1.42100
C1167       C  0.34322453  0.09653006  0.50958034     1.09400
C1168       C  0.42205917  0.27027139  0.94207142     1.09500
C1169       C  0.44366632  0.16061170  0.93223911     1.09400
C1170       C  0.34248539  0.24550260  0.51163983     1.09400
C1171       C  0.24770209  0.26871071  0.52167580    -0.12300
C1172       C  0.25507903  0.29788157  0.49634953     0.04700
C1173       C  0.28945371  0.30613958  0.47477018    -0.07600
C1174       C  0.31661154  0.28789221  0.47994554    -0.08400
C1175       C  0.31019972  0.26047626  0.50584143    -0.02900
C1176       C  0.27460873  0.24995722  0.52643813     0.03900
N1177       N  0.26670448  0.22217059  0.55326899     0.66400
H1178       H  0.22218603  0.26189702  0.53875648     0.15300
H1179       H  0.34334245  0.29569610  0.46375626     0.15000
N1180       N  0.29892945  0.33454050  0.44806150     0.74100
O1181       O  0.28600337  0.24026780  0.57883111    -0.39300
O1182       O  0.23317832  0.18232941  0.55336591    -0.39300
O1183       O  0.33278490  0.37420578  0.44865327    -0.40000
O1184       O  0.27595633  0.30883800  0.91813903    -0.40100
C1185       C  0.41188525  0.62995033  0.52569252    -0.12300
C1186       C  0.44402913  0.62402767  0.02264595     0.04700
C1187       C  0.43798694  0.58185870  0.03074909    -0.07600
C1188       C  0.39438767  0.54410307  0.03344963    -0.08400
C1189       C  0.35641152  0.54748314  0.02849409    -0.02900
C1190       C  0.36265417  0.59033484  0.02314539     0.03900
N1191       N  0.33186884  0.59773045  0.53115960     0.66400
H1192       H  0.41489997  0.66252219  0.52638070     0.15300
H1193       H  0.39014249  0.51136850  0.03763487     0.15000
N1194       N  0.47521817  0.57631028  0.03602745     0.74100
O1195       O  0.32136593  0.60436674  0.55791794    -0.39300
O1196       O  0.31797477  0.60626069  0.99227624    -0.39300
O1197       O  0.49874135  0.56733630  0.53472163    -0.40000
O1198       O  0.48748562  0.56069851  0.01432674    -0.40100
C1199       C  0.24709949  0.97462506  0.51420040    -0.12300
C1200       C  0.26622777  0.95347838  0.49821240     0.04700
C1201       C  0.30762031  0.98070791  0.48271021    -0.07600
C1202       C  0.33011507  0.02743420  0.48513874    -0.08400
C1203       C  0.31262086  0.04840476  0.50270968    -0.02900
C1204       C  0.27004719  0.02190057  0.51663430     0.03900
N1205       N  0.25132876  0.04500821  0.02854179     0.66400
H1206       H  0.21555265  0.95740059  0.02160721     0.15300
H1207       H  0.36267846  0.04747978  0.47421020     0.15000
N1208       N  0.32810775  0.96189607  0.46466253     0.74100
O1209       O  0.22360623  0.05086333  0.01340085    -0.39300
O1210       O  0.25596988  0.04249987  0.56485384    -0.39300
O1211       O  0.33850956  0.96376288  0.94165141    -0.40000
O1212       O  0.35912494  0.95846882  0.47703077    -0.40100
C1213       C  0.14100352  0.60232920  0.99677956    -0.12300
C1214       C  0.17467990  0.64007289  0.01357393     0.04700
C1215       C  0.21026286  0.63702511  0.02659938    -0.07600
C1216       C  0.21307456  0.59872765  0.02060911    -0.08400
C1217       C  0.18091666  0.56210570  0.00223466    -0.02900
C1218       C  0.14366162  0.56389146  0.99112951     0.03900
N1219       N  0.10952148  0.52847901  0.97235830     0.66400
H1220       H  0.11298156  0.60325148  0.98645632     0.15300
H1221       H  0.24100441  0.59740757  0.03088009     0.15000
N1222       N  0.24409508  0.67279571  0.04546523     0.74100
O1223       O  0.08088264  0.50160810  0.48346032    -0.39300
O1224       O  0.11000567  0.53404444  0.94311989    -0.39300
O1225       O  0.23333098  0.68132557  0.57341806    -0.40000
O1226       O  0.28191785  0.70043273  0.03381592    -0.40100
C1227       C  0.37637833  0.78586649  0.96724339    -0.12300
C1228       C  0.37212545  0.81856235  0.98286533     0.04700
C1229       C  0.41348329  0.85967893  0.49554071    -0.07600
C1230       C  0.45494666  0.86213200  0.49560037    -0.08400
C1231       C  0.45505119  0.82281246  0.98295919    -0.02900
C1232       C  0.41717038  0.78772564  0.96675538     0.03900
N1233       N  0.41930631  0.75471062  0.94827511     0.66400
H1234       H  0.34758992  0.75793496  0.95577743     0.15300
H1235       H  0.48345877  0.89012381  0.50724586     0.15000
N1236       N  0.40987507  0.89265145  0.51281633     0.74100
O1237       O  0.40603032  0.71655208  0.96023746    -0.39300
O1238       O  0.41670187  0.75711228  0.91891464    -0.39300
O1239       O  0.40416695  0.88605930  0.04258728    -0.40000
O1240       O  0.42231013  0.93024219  0.50023578    -0.40100
C1241       C  0.68126500  0.97342679  0.98371428    -0.12300
C1242       C  0.70602435  0.95621298  0.49895000     0.04700
C1243       C  0.74692763  0.98276535  0.51546456    -0.07600
C1244       C  0.76840778  0.03013095  0.51475479    -0.08400
C1245       C  0.74879789  0.05096503  0.49858704    -0.02900
C1246       C  0.70131462  0.01983003  0.98355626     0.03900
N1247       N  0.67673308  0.03740511  0.96891868     0.66400
H1248       H  0.64846518  0.95347700  0.97284777     0.15300
H1249       H  0.79781202  0.05016091  0.52928486     0.15000
N1250       N  0.76397121  0.96271717  0.53611821     0.74100
O1251       O  0.67085905  0.03267776  0.93972659    -0.39300
O1252       O  0.64791200  0.03991315  0.98494945    -0.39300
O1253       O  0.79765194  0.96095396  0.52790970    -0.40000
O1254       O  0.75382703  0.95867312  0.56473008    -0.40100
C1255       C  0.98082122  0.24443391  0.51381494    -0.12300
C1256       C  0.95859862  0.26173192  0.49621865     0.04700
C1257       C  0.98524902  0.29597707  0.97417665    -0.07600
C1258       C  0.03179615  0.32073817  0.97862423    -0.08400
C1259       C  0.05473495  0.31249650  0.50433619    -0.02900
C1260       C  0.02825867  0.26904527  0.51774012     0.03900
N1261       N  0.04814369  0.25060673  0.53723619     0.66400
H1262       H  0.96122413  0.21236609  0.52561868     0.15300
H1263       H  0.05141504  0.35202110  0.96653191     0.15000
N1264       N  0.96741273  0.31393401  0.95256070     0.74100
O1265       O  0.05024148  0.25708923  0.56640844    -0.39300
O1266       O  0.05213457  0.21900989  0.52679092    -0.39300
O1267       O  0.97029726  0.36057099  0.47560892    -0.40000
O1268       O  0.96384383  0.30194946  0.92435842    -0.40100
C1269       C  0.55650646  0.14603631  0.01228943    -0.12300
C1270       C  0.55309021  0.17932011  0.99563239     0.04700
C1271       C  0.59130135  0.21007660  0.51357859    -0.07600
C1272       C  0.63077726  0.20924798  0.51112058    -0.08400
C1273       C  0.63489209  0.17950633  0.99704592    -0.02900
C1274       C  0.59638433  0.14517982  0.01240031     0.03900
N1275       N  0.59647783  0.10796711  0.02674128     0.66400
H1276       H  0.52770905  0.11975350  0.02474728     0.15300
H1277       H  0.66140688  0.23610397  0.52192867     0.15000
N1278       N  0.59194658  0.24394846  0.53265078     0.74100
O1279       O  0.61854415  0.11374053  0.05161555    -0.39300
O1280       O  0.58103890  0.07151864  0.01177190    -0.39300
O1281       O  0.58493984  0.23649938  0.56160941    -0.40000
O1282       O  0.61415733  0.28422198  0.52335883    -0.40100
C1283       C  0.97179224  0.68410966  0.47892993    -0.12300
C1284       C  0.94996885  0.69055600  0.50363700     0.04700
C1285       C  0.97413936  0.72920391  0.52270061    -0.07600
C1286       C  0.02031272  0.75909285  0.51792419    -0.08400
C1287       C  0.04301884  0.75192653  0.49387033    -0.02900
C1288       C  0.01752553  0.71429921  0.47354773     0.03900
N1289       N  0.03754592  0.70422214  0.44834968     0.66400
H1290       H  0.95329187  0.65478371  0.46389362     0.15300
H1291       H  0.03883669  0.78721629  0.53396722     0.15000
N1292       N  0.95321476  0.73698242  0.54840321     0.74100
O1293       O  0.04855237  0.67532357  0.45259135    -0.39300
O1294       O  0.03365808  0.71622108  0.92242471    -0.39300
O1295       O  0.96063543  0.72839947  0.57569543    -0.40000
O1296       O  0.93708712  0.77100506  0.03844557    -0.40100
C1297       C  0.69885278  0.66880432  0.53749783    -0.12300
C1298       C  0.73410651  0.67995155  0.51691191     0.04700
C1299       C  0.74186748  0.71200172  0.99715503    -0.07600
C1300       C  0.72094391  0.73730788  0.99856667    -0.08400
C1301       C  0.69207273  0.73107389  0.51861206    -0.02900
C1302       C  0.67832225  0.69378121  0.53879748     0.03900
N1303       N  0.64442618  0.68135916  0.56190000     0.66400
H1304       H  0.68705309  0.64040569  0.55326642     0.15300
H1305       H  0.72712887  0.76146551  0.98027261     0.15000
N1306       N  0.77004884  0.71858283  0.97120361     0.74100
O1307       O  0.60511701  0.64875440  0.55632449    -0.39300
O1308       O  0.65671013  0.69210162  0.58998829    -0.39300
O1309       O  0.75174860  0.70243097  0.94505879    -0.40000
O1310       O  0.81058997  0.75054665  0.97205285    -0.40100
C1311       C  0.77225044  0.40704694  0.48603901    -0.12300
C1312       C  0.81778235  0.44740182  0.99322936     0.04700
C1313       C  0.85212581  0.43948196  0.00214695    -0.07600
C1314       C  0.84309731  0.39510447  0.00255080    -0.08400
C1315       C  0.80054731  0.35863947  0.99363613    -0.02900
C1316       C  0.76425265  0.36349551  0.48621859     0.03900
N1317       N  0.72569212  0.32974410  0.46920912     0.66400
H1318       H  0.74792471  0.41269006  0.47435868     0.15300
H1319       H  0.87008270  0.38941029  0.00818354     0.15000
N1320       N  0.89651586  0.47594329  0.00947997     0.74100
O1321       O  0.68773362  0.31225737  0.48200822    -0.39300
O1322       O  0.72720596  0.33047805  0.43966469    -0.39300
O1323       O  0.90585954  0.49161417  0.03694748    -0.40000
O1324       O  0.92392764  0.49689975  0.98767390    -0.40100
C1325       C  0.59932358  0.34859612  0.00704784    -0.12300
C1326       C  0.57101113  0.33956921  0.98114394     0.04700
C1327       C  0.58635621  0.36883801  0.95530207    -0.07600
C1328       C  0.62820592  0.40872897  0.95699977    -0.08400
C1329       C  0.65483430  0.42007769  0.98433139    -0.02900
C1330       C  0.64121064  0.38836687  0.00876692     0.03900
N1331       N  0.66782398  0.39681191  0.03630837     0.66400
H1332       H  0.58810516  0.32542774  0.02666378     0.15300
H1333       H  0.63822435  0.43238308  0.93772562     0.15000
N1334       N  0.55786333  0.36116860  0.92886303     0.74100
O1335       O  0.65510058  0.40584318  0.06117224    -0.39300
O1336       O  0.69342958  0.38408518  0.54031727    -0.39300
O1337       O  0.52884971  0.37232500  0.93007870    -0.40000
O1338       O  0.56304298  0.33565809  0.40915867    -0.40100
C1339       C  0.48114727  0.33487489  0.64774554    -0.12300
C1340       C  0.44645403  0.33574235  0.66336385     0.04700
C1341       C  0.40177953  0.30666275  0.65224624    -0.07600
C1342       C  0.39343685  0.28013807  0.62523131    -0.08400
C1343       C  0.42850762  0.28118028  0.60861560    -0.02900
C1344       C  0.47287399  0.30822355  0.62095732     0.03900
N1345       N  0.51046787  0.30937191  0.60689632     0.66400
H1346       H  0.51546165  0.35574287  0.65587255     0.15300
H1347       H  0.35922652  0.25944392  0.61681288     0.15000
N1348       N  0.36408013  0.30310448  0.66793145     0.74100
O1349       O  0.53602970  0.34227255  0.58949474    -0.39300
O1350       O  0.52552633  0.28692412  0.61939017    -0.39300
O1351       O  0.34420433  0.32107714  0.65568589    -0.40000
O1352       O  0.34341467  0.27196089  0.68772059    -0.40100
C1353       C  0.44356700  0.31235186  0.85782079    -0.12300
C1354       C  0.43979055  0.35016848  0.86014093     0.04700
C1355       C  0.42465722  0.35857868  0.88810054    -0.07600
C1356       C  0.41678377  0.33086960  0.91426995    -0.08400
C1357       C  0.42155655  0.29306709  0.91250937    -0.02900
C1358       C  0.43393025  0.28340232  0.88335312     0.03900
N1359       N  0.43998538  0.24626389  0.87936205     0.66400
H1360       H  0.45472876  0.30552297  0.83608474     0.15300
H1361       H  0.40873177  0.34006528  0.93626586     0.15000
N1362       N  0.41965513  0.39668209  0.89058231     0.74100
O1363       O  0.40915735  0.21156069  0.86575133    -0.39300
O1364       O  0.47956963  0.25414328  0.87829484    -0.39300
O1365       O  0.38326932  0.39294641  0.88177002    -0.40000
O1366       O  0.45416673  0.43552315  0.89396365    -0.40100
C1367       C  0.73276175  0.60417828  0.63120353    -0.12300
C1368       C  0.72221356  0.56749161  0.61176809     0.04700
C1369       C  0.68658986  0.52422693  0.62136559    -0.07600
C1370       C  0.66185497  0.51898048  0.64843406    -0.08400
C1371       C  0.67082520  0.55587138  0.66678235    -0.02900
C1372       C  0.70785662  0.59890680  0.65835595     0.03900
N1373       N  0.72184161  0.63791806  0.67713781     0.66400
H1374       H  0.76017356  0.63752371  0.62514901     0.15300
H1375       H  0.63412959  0.48570130  0.65434179     0.15000
N1376       N  0.67333283  0.48459845  0.60378349     0.74100
O1377       O  0.75019059  0.64687177  0.69872362    -0.39300
O1378       O  0.71837851  0.66952244  0.66587154    -0.39300
O1379       O  0.68295411  0.45701258  0.61495367    -0.40000
O1380       O  0.63948631  0.47010523  0.58596458    -0.40100
C1381       C  0.65092139  0.53894708  0.92052475    -0.12300
C1382       C  0.69656694  0.57317636  0.92181538     0.04700
C1383       C  0.71664165  0.59959207  0.89462271    -0.07600
C1384       C  0.69039897  0.59172069  0.86750998    -0.08400
C1385       C  0.64533549  0.55606581  0.86613961    -0.02900
C1386       C  0.62581313  0.52945377  0.89294058     0.03900
N1387       N  0.58037808  0.49245697  0.89275165     0.66400
H1388       H  0.63498055  0.51728518  0.94052533     0.15300
H1389       H  0.70587045  0.61226718  0.84697236     0.15000
N1390       N  0.76362054  0.63309485  0.89340570     0.74100
O1391       O  0.57259520  0.45345232  0.88693839    -0.39300
O1392       O  0.55114386  0.49651333  0.90694092    -0.39300
O1393       O  0.78998118  0.62275426  0.88147571    -0.40000
O1394       O  0.77584063  0.67419084  0.89467608    -0.40100
C1395       C  0.52127355  0.67580260  0.63980497    -0.12300
C1396       C  0.55550935  0.67632309  0.65753877     0.04700
C1397       C  0.60069026  0.70812317  0.65025120    -0.07600
C1398       C  0.61055995  0.73465083  0.62348089    -0.08400
C1399       C  0.57605403  0.73067688  0.60398978    -0.02900
C1400       C  0.53121959  0.70334676  0.61367127     0.03900
N1401       N  0.49523889  0.70347039  0.59775125     0.66400
H1402       H  0.48639940  0.65363813  0.64568191     0.15300
H1403       H  0.64546318  0.75713530  0.61742914     0.15000
N1404       N  0.63705917  0.71407347  0.66945229     0.74100
O1405       O  0.46565255  0.66789338  0.58427349    -0.39300
O1406       O  0.48587799  0.73262783  0.60532926    -0.39300
O1407       O  0.65822916  0.69551139  0.66141164    -0.40000
O1408       O  0.65535926  0.74683891  0.68831043    -0.40100
C1409       C  0.56490430  0.65642399  0.87532443    -0.12300
C1410       C  0.53578845  0.66026025  0.85437181     0.04700
C1411       C  0.51372792  0.68231642  0.86377345    -0.07600
C1412       C  0.51981657  0.69853637  0.89415063    -0.08400
C1413       C  0.54791254  0.69362774  0.91552698    -0.02900
C1414       C  0.57139171  0.67324857  0.90573097     0.03900
N1415       N  0.60100628  0.66837152  0.92631201     0.66400
H1416       H  0.58211997  0.63955704  0.86832658     0.15300
H1417       H  0.50243996  0.71526879  0.90083903     0.15000
N1418       N  0.48716762  0.69098846  0.84260214     0.74100
O1419       O  0.58615409  0.63239175  0.94179428    -0.39300
O1420       O  0.64291527  0.69456710  0.92339536    -0.39300
O1421       O  0.44506821  0.66977774  0.84605061    -0.40000
O1422       O  0.50595429  0.72791123  0.82788527    -0.40100
C1423       C  0.36357251  0.42648068  0.62200047    -0.12300
C1424       C  0.36235795  0.45955831  0.64008111     0.04700
C1425       C  0.34037474  0.48067900  0.62789483    -0.07600
C1426       C  0.31643373  0.46537767  0.59966281    -0.08400
C1427       C  0.31516133  0.43023336  0.58260136    -0.02900
C1428       C  0.34078386  0.41218705  0.59322517     0.03900
N1429       N  0.34169066  0.37733270  0.57634531     0.66400
H1430       H  0.38143257  0.41084244  0.63053473     0.15300
H1431       H  0.29752872  0.48012606  0.59149548     0.15000
N1432       N  0.33949115  0.51565061  0.64465033     0.74100
O1433       O  0.37434186  0.38777430  0.55848237    -0.39300
O1434       O  0.31751932  0.33703530  0.58547379    -0.39300
O1435       O  0.36568159  0.55613486  0.63651057    -0.40000
O1436       O  0.30573590  0.50579252  0.66115898    -0.40100
C1437       C  0.36404733  0.52111752  0.86942629    -0.12300
C1438       C  0.34058533  0.48461386  0.84856781     0.04700
C1439       C  0.29561029  0.45158265  0.85481339    -0.07600
C1440       C  0.27610029  0.45347989  0.88264965    -0.08400
C1441       C  0.30106435  0.48685178  0.90530229    -0.02900
C1442       C  0.34479434  0.52226928  0.89792591     0.03900
N1443       N  0.37129756  0.55757986  0.91978585     0.66400
H1444       H  0.39831113  0.54741374  0.86444737     0.15300
H1445       H  0.24208901  0.42655081  0.88768207     0.15000
N1446       N  0.26913560  0.41570666  0.83334094     0.74100
O1447       O  0.39630698  0.55297961  0.93895763    -0.39300
O1448       O  0.37834457  0.59651451  0.91464470    -0.39300
O1449       O  0.26059304  0.37653585  0.83972410    -0.40000
O1450       O  0.24459963  0.42031883  0.81373395    -0.40100
C1451       C  0.89041633  0.57872138  0.65141602    -0.12300
C1452       C  0.88400652  0.53556595  0.65377742     0.04700
C1453       C  0.85857956  0.50345987  0.63033118    -0.07600
C1454       C  0.84223343  0.51588320  0.60453293    -0.08400
C1455       C  0.85089037  0.56005921  0.60122805    -0.02900
C1456       C  0.87403044  0.59113289  0.62580778     0.03900
N1457       N  0.88179090  0.63569350  0.62548233     0.66400
H1458       H  0.90870503  0.60343837  0.66955268     0.15300
H1459       H  0.82410036  0.49108402  0.58644608     0.15000
N1460       N  0.85112120  0.45897645  0.63109009     0.74100
O1461       O  0.85266854  0.64216436  0.63738302    -0.39300
O1462       O  0.92169541  0.66857235  0.62328916    -0.39300
O1463       O  0.81213708  0.42602109  0.63667611    -0.40000
O1464       O  0.87929226  0.45178314  0.61838045    -0.40100
C1465       C  0.90787483  0.58014373  0.90397963    -0.12300
C1466       C  0.86131237  0.56164800  0.90268747     0.04700
C1467       C  0.83757958  0.53634778  0.87532264    -0.07600
C1468       C  0.86024196  0.52841817  0.85175616    -0.08400
C1469       C  0.90638933  0.54592560  0.85364646    -0.02900
C1470       C  0.93054303  0.57309993  0.87967917     0.03900
N1471       N  0.97778388  0.59196551  0.88281452     0.66400
H1472       H  0.92676447  0.59897718  0.92445966     0.15300
H1473       H  0.84140420  0.50844134  0.83159890     0.15000
N1474       N  0.79033152  0.51756456  0.87074316     0.74100
O1475       O  0.00405443  0.63247926  0.87481181    -0.39300
O1476       O  0.99174860  0.57385630  0.90163683    -0.39300
O1477       O  0.77781326  0.53800288  0.85289548    -0.40000
O1478       O  0.76386793  0.47578560  0.87508063    -0.40100
C1479       C  0.84956394  0.29858275  0.61034778    -0.12300
C1480       C  0.88223818  0.30534096  0.58837298     0.04700
C1481       C  0.92725780  0.33972166  0.59325424    -0.07600
C1482       C  0.93952644  0.36416945  0.62113669    -0.08400
C1483       C  0.90736454  0.35576187  0.64402566    -0.02900
C1484       C  0.86164897  0.32415243  0.63784559     0.03900
N1485       N  0.82733324  0.31611848  0.65957183     0.66400
H1486       H  0.81458532  0.27308679  0.60626537     0.15300
H1487       H  0.97464246  0.38914862  0.62519550     0.15000
N1488       N  0.96133025  0.34852411  0.57106399     0.74100
O1489       O  0.80484159  0.33454659  0.65482641    -0.39300
O1490       O  0.81146987  0.28205139  0.67722864    -0.39300
O1491       O  0.97479120  0.38137003  0.55249205    -0.40000
O1492       O  0.98466597  0.33082771  0.57491374    -0.40100
C1493       C  0.91169382  0.37211481  0.91133484    -0.12300
C1494       C  0.89065152  0.32540986  0.91472224     0.04700
C1495       C  0.88886100  0.29879809  0.88902193    -0.07600
C1496       C  0.90866777  0.31978768  0.86071070    -0.08400
C1497       C  0.92772342  0.36623085  0.85710785    -0.02900
C1498       C  0.92899911  0.39251121  0.88253958     0.03900
N1499       N  0.94592914  0.43960545  0.87926194     0.66400
H1500       H  0.91251743  0.39261327  0.93065960     0.15300
H1501       H  0.90698268  0.29944536  0.84100022     0.15000
N1502       N  0.86685593  0.25067993  0.89098820     0.74100
O1503       O  0.91827452  0.45246034  0.87701851    -0.39300
O1504       O  0.98575266  0.46757481  0.88784000    -0.39300
O1505       O  0.82729073  0.22676305  0.88045032    -0.40000
O1506       O  0.89025136  0.23296109  0.89434847    -0.40100
C1507       C  0.13947421  0.43828971  0.64465309    -0.12300
C1508       C  0.13644599  0.47675983  0.64314720     0.04700
C1509       C  0.15512776  0.50627530  0.61731787    -0.07600
C1510       C  0.17240358  0.49442774  0.59222063    -0.08400
C1511       C  0.17199938  0.45390276  0.59265422    -0.02900
C1512       C  0.15778316  0.42707812  0.62003552     0.03900
N1513       N  0.16161506  0.38831531  0.62339598     0.66400
H1514       H  0.12735908  0.41660776  0.66500042     0.15300
H1515       H  0.18374869  0.51577153  0.57170283     0.15000
N1516       N  0.15416001  0.54673890  0.61497931     0.74100
O1517       O  0.19599400  0.39263780  0.63682945    -0.39300
O1518       O  0.12679086  0.34948991  0.62090322    -0.39300
O1519       O  0.19040018  0.58423396  0.61834586    -0.40000
O1520       O  0.12147622  0.54551559  0.60113384    -0.40100
C1521       C  0.10883451  0.43201701  0.85925116    -0.12300
C1522       C  0.13979556  0.47171120  0.84334927     0.04700
C1523       C  0.18334425  0.49873711  0.85621589    -0.07600
C1524       C  0.19370908  0.48703727  0.88519812    -0.08400
C1525       C  0.16183194  0.44841651  0.90193726    -0.02900
C1526       C  0.11933270  0.42011837  0.88799230     0.03900
N1527       N  0.08478599  0.38098294  0.90339315     0.66400
H1528       H  0.07529390  0.41036495  0.84987895     0.15300
H1529       H  0.22706729  0.50889257  0.89478703     0.15000
N1530       N  0.21838483  0.53648195  0.83968799     0.74100
O1531       O  0.05296671  0.38311813  0.91517500    -0.39300
O1532       O  0.07785840  0.34292624  0.89545210    -0.39300
O1533       O  0.23544605  0.57542414  0.85130971    -0.40000
O1534       O  0.24096479  0.52950094  0.82013126    -0.40100
C1535       C  0.06374827  0.64108086  0.61582471    -0.12300
C1536       C  0.09940517  0.64903617  0.63580142     0.04700
C1537       C  0.14385286  0.67953186  0.62653868    -0.07600
C1538       C  0.15182455  0.70316197  0.59849563    -0.08400
C1539       C  0.11623201  0.69757897  0.57936562    -0.02900
C1540       C  0.07168961  0.66496523  0.58770808     0.03900
N1541       N  0.03403795  0.65804205  0.56953313     0.66400
H1542       H  0.02937554  0.61735357  0.62259258     0.15300
H1543       H  0.18628572  0.72771350  0.59237211     0.15000
N1544       N  0.18105808  0.69088576  0.64682090     0.74100
O1545       O  0.01517698  0.62486299  0.55104286    -0.39300
O1546       O  0.01244291  0.67578881  0.57855907    -0.39300
O1547       O  0.20568508  0.67519908  0.64119005    -0.40000
O1548       O  0.19575024  0.72476275  0.66454276    -0.40100
C1549       C  0.13780842  0.70329446  0.85014502    -0.12300
C1550       C  0.13270902  0.66123035  0.84572583     0.04700
C1551       C  0.14529660  0.64170260  0.86942030    -0.07600
C1552       C  0.16200765  0.66424122  0.89774800    -0.08400
C1553       C  0.16530493  0.70548577  0.90277991    -0.02900
C1554       C  0.15376604  0.72563289  0.87850167     0.03900
N1555       N  0.15692513  0.76807682  0.88228577     0.66400
H1556       H  0.12835972  0.71835870  0.83179473     0.15300
H1557       H  0.16955582  0.64812604  0.91647647     0.15000
N1558       N  0.13714012  0.59720080  0.86637134     0.74100
O1559       O  0.18941753  0.80270075  0.86989922    -0.39300
O1560       O  0.12174489  0.76825020  0.88850338    -0.39300
O1561       O  0.17013297  0.59184593  0.86641699    -0.40000
O1562       O  0.09852663  0.56395252  0.87242747    -0.40100
C1563       C  0.30580083  0.81834804  0.59700071    -0.12300
C1564       C  0.29964882  0.84999655  0.58098744     0.04700
C1565       C  0.32208835  0.89486988  0.59207607    -0.07600
C1566       C  0.34643199  0.90623325  0.62016376    -0.08400
C1567       C  0.35033500  0.87413624  0.63755174    -0.02900
C1568       C  0.33116047  0.83001167  0.62497497     0.03900
N1569       N  0.33517739  0.79591259  0.64058660     0.66400
H1570       H  0.28946168  0.78404860  0.58848139     0.15300
H1571       H  0.36250855  0.94068384  0.62834148     0.15000
N1572       N  0.32226743  0.93001242  0.57447764     0.74100
O1573       O  0.30339812  0.76792595  0.65774113    -0.39300
O1574       O  0.36233864  0.78567881  0.62998826    -0.39300
O1575       O  0.29927176  0.94598693  0.58395195    -0.40000
O1576       O  0.35428726  0.95306364  0.55589385    -0.40100
C1577       C  0.31836267  0.83007040  0.85597330    -0.12300
C1578       C  0.33376644  0.87382502  0.84572423     0.04700
C1579       C  0.31974720  0.89990451  0.86181628    -0.07600
C1580       C  0.29302997  0.88261456  0.88863136    -0.08400
C1581       C  0.27998082  0.83971456  0.90004560    -0.02900
C1582       C  0.29163186  0.81264720  0.88250754     0.03900
N1583       N  0.27717304  0.76724244  0.89084627     0.66400
H1584       H  0.32724900  0.80894151  0.84346947     0.15300
H1585       H  0.28393900  0.90353635  0.90115758     0.15000
N1586       N  0.33411038  0.94491415  0.85256263     0.74100
O1587       O  0.25064584  0.73627433  0.87237443    -0.39300
O1588       O  0.30252744  0.76042356  0.90808468    -0.39300
O1589       O  0.30706679  0.95193979  0.83756076    -0.40000
O1590       O  0.36665151  0.97726451  0.86699447    -0.40100
C1591       C  0.53036198  0.88040397  0.62173658    -0.12300
C1592       C  0.54633462  0.87483959  0.65029630     0.04700
C1593       C  0.57475403  0.85746548  0.65099540    -0.07600
C1594       C  0.58837593  0.84761030  0.62280927    -0.08400
C1595       C  0.57301737  0.85403813  0.59383222    -0.02900
C1596       C  0.54312637  0.86992361  0.59368844     0.03900
N1597       N  0.52603521  0.87671309  0.56521691     0.66400
H1598       H  0.50877894  0.89422391  0.62111449     0.15300
H1599       H  0.61037497  0.83428216  0.62355848     0.15000
N1600       N  0.58822575  0.84803329  0.68028335     0.74100
O1601       O  0.48592890  0.84819476  0.55763990    -0.39300
O1602       O  0.54501785  0.91584801  0.55361555    -0.39300
O1603       O  0.56034075  0.81342300  0.69544986    -0.40000
O1604       O  0.62296125  0.87872943  0.69401324    -0.40100
C1605       C  0.51656681  0.81013554  0.88724468    -0.12300
C1606       C  0.55871717  0.83374943  0.90249821     0.04700
C1607       C  0.59343895  0.87321271  0.88810874    -0.07600
C1608       C  0.58446334  0.88963344  0.86082568    -0.08400
C1609       C  0.54120369  0.86826447  0.84735456    -0.02900
C1610       C  0.50728024  0.82723466  0.86038925     0.03900
N1611       N  0.46278250  0.80346423  0.84752479     0.66400
H1612       H  0.48979825  0.77886505  0.89697587     0.15300
H1613       H  0.61183988  0.92041489  0.85086706     0.15000
N1614       N  0.63800557  0.89761334  0.90068516     0.74100
O1615       O  0.45383956  0.77777111  0.82427783    -0.39300
O1616       O  0.43428282  0.81281632  0.85660799    -0.39300
O1617       O  0.66759121  0.89225630  0.88831348    -0.40000
O1618       O  0.65039249  0.93364638  0.91544386    -0.40100
C1619       C  0.70915280  0.10454594  0.61111177    -0.12300
C1620       C  0.70729718  0.13786291  0.59354679     0.04700
C1621       C  0.67716047  0.15100240  0.60306923    -0.07600
C1622       C  0.65163636  0.13259166  0.63019722    -0.08400
C1623       C  0.65373129  0.09955849  0.64775382    -0.02900
C1624       C  0.68221162  0.08473478  0.63742938     0.03900
N1625       N  0.68350762  0.04873172  0.65259295     0.66400
H1626       H  0.73078229  0.09258175  0.60394335     0.15300
H1627       H  0.62936013  0.14379944  0.63699876     0.15000
N1628       N  0.67006021  0.18126569  0.58497232     0.74100
O1629       O  0.66065293  0.00948705  0.64124337    -0.39300
O1630       O  0.71550545  0.05791599  0.67114734    -0.39300
O1631       O  0.63428473  0.16503466  0.56908248    -0.40000
O1632       O  0.69045057  0.22236131  0.59264407    -0.40100
C1633       C  0.67339183  0.15108731  0.85360554    -0.12300
C1634       C  0.65836860  0.10561059  0.84837037     0.04700
C1635       C  0.67598313  0.08479396  0.86713203    -0.07600
C1636       C  0.70585791  0.10907853  0.89173281    -0.08400
C1637       C  0.71608481  0.15261034  0.89938172    -0.02900
C1638       C  0.70176833  0.17464349  0.87869672     0.03900
N1639       N  0.71463250  0.22065149  0.88292067     0.66400
H1640       H  0.66249717  0.16862891  0.83857144     0.15300
H1641       H  0.71950870  0.09329475  0.90575311     0.15000
N1642       N  0.66126192  0.03820406  0.86340869     0.74100
O1643       O  0.74818341  0.25104568  0.86823618    -0.39300
O1644       O  0.68637676  0.22924057  0.89372113    -0.39300
O1645       O  0.68888660  0.02759080  0.85449137    -0.40000
O1646       O  0.62523235  0.00868662  0.87628994    -0.40100
C1647       C  0.41062069  0.09455571  0.64394067    -0.12300
C1648       C  0.45507456  0.10674406  0.65009683     0.04700
C1649       C  0.48959834  0.14047054  0.63139265    -0.07600
C1650       C  0.47887875  0.16004879  0.60663839    -0.08400
C1651       C  0.43401726  0.14597804  0.59943496    -0.02900
C1652       C  0.39965900  0.11275340  0.61874974     0.03900
N1653       N  0.35303120  0.09338474  0.61165180     0.66400
H1654       H  0.38342933  0.06923374  0.65800022     0.15300
H1655       H  0.50575669  0.18494507  0.59215820     0.15000
N1656       N  0.53526068  0.15272860  0.63532911     0.74100
O1657       O  0.33273388  0.05642497  0.59698535    -0.39300
O1658       O  0.33043115  0.10487077  0.62767934    -0.39300
O1659       O  0.54993881  0.13338140  0.61869283    -0.40000
O1660       O  0.56285167  0.19003067  0.64798731    -0.40100
C1661       C  0.48315565  0.13407794  0.90056751    -0.12300
C1662       C  0.44222881  0.13054546  0.90717546     0.04700
C1663       C  0.40529679  0.10490323  0.88689011    -0.07600
C1664       C  0.41076162  0.08482820  0.85997184    -0.08400
C1665       C  0.45276502  0.09058846  0.85250570    -0.02900
C1666       C  0.48899125  0.11509413  0.87362389     0.03900
N1667       N  0.53245452  0.12195840  0.86812668     0.66400
H1668       H  0.51152675  0.15313960  0.91606709     0.15300
H1669       H  0.38243936  0.06613007  0.84428046     0.15000
N1670       N  0.36280658  0.10045673  0.89227066     0.74100
O1671       O  0.56239249  0.15890507  0.85637380    -0.39300
O1672       O  0.54426863  0.09855652  0.88323383    -0.39300
O1673       O  0.35140485  0.12295767  0.87568358    -0.40000
O1674       O  0.33266380  0.06579588  0.90620833    -0.40100
loop_ 
_geom_bond_atom_site_label_1 
_geom_bond_atom_site_label_2 
_geom_bond_distance 
_geom_bond_site_symmetry_2 
_ccdc_geom_bond_type 
C1           N19   1.357       .  A
C1           C38   1.466       .  S
C1          C828   1.505       .  S
N2           N19   1.331       .  A
N2           N24   1.320       .  A
N2          Co39   2.107       .  S
C3           N28   1.346       .  A
C3           C41   1.462       .  S
C3           H48   1.081       .  S
H4           C45   1.081       .  S
C5           N29   1.333       .  A
C5            C9   1.455       .  S
C5           H34   1.080       .  S
Co6          N24   2.107   1_565  S
Co6          N14   2.064       .  S
Co6          N46   2.080   1_565  S
Co6          N22   2.111       .  S
Co6         Cl50   2.449       .  S
N7           C45   1.341       .  A
N7           N14   1.319       .  A
N7           Co8   2.095       .  S
Co8          N11   2.103       .  S
Co8          N28   2.090       .  S
Co8          N15   2.089       .  S
Co8         Cl50   2.456       .  S
C9           N47   1.357       .  A
C9          C772   1.486       .  S
N10          N17   1.316       .  A
N10          N40   1.324       .  A
N10         Co43   2.060   1_545  S
N11          N29   1.319       .  A
N11          N47   1.327       .  A
N12          C41   1.356       .  A
N12          N22   1.325       .  A
H13          C38   1.080       .  S
N14          N35   1.323       .  A
N15          N33   1.320       .  A
N15          N20   1.325       .  A
C16          N20   1.349       .  A
C16          C44   1.453       .  S
C16         C755   1.465       .  S
N17          C32   1.330       .  A
N17         Co39   2.070       .  S
C18          N46   1.339       .  A
C18          C21   1.460       .  S
C18          H52   1.082       .  S
C21          N42   1.351       .  A
C21         C811   1.480       .  S
N22          N28   1.322       .  A
N23          C49   1.338       .  A
N23          N25   1.320       .  A
N23         Co39   2.084       .  S
N24          C38   1.345       .  A
N25          N53   1.324       .  A
N25         Co43   2.083   1_545  S
H26          C49   1.081       .  S
H27          C44   1.081       .  S
N29         Co43   2.063       .  S
N30          N42   1.328       .  A
N30          N46   1.318       .  A
N30         Co39   2.088       .  S
C31          N35   1.343       .  A
C31          C45   1.469       .  S
C31         C741   1.479       .  S
C32          C51   1.464       .  S
C32          H36   1.080       .  S
N33          C44   1.336       .  A
N33         Co43   2.065       .  S
C37          N53   1.351       .  A
C37          C49   1.463       .  S
C37         C786   1.485       .  S
Co39        Cl50   2.450   1_545  S
N40          C51   1.346       .  A
C41         C730   1.490       .  S
Co43        Cl50   2.450       .  S
C51         C797   1.474       .  S
C54          N72   1.340       .  A
C54          C91   1.458       .  S
C54         C713   1.455       .  S
N55          N72   1.320       .  A
N55          N77   1.321       .  A
N55         Co92   2.045       .  S
C56          N81   1.347       .  A
C56          C94   1.467       .  S
C56         H101   1.080       .  S
H57          C98   1.082       .  S
C58          N82   1.342       .  A
C58          C62   1.455       .  S
C58          H87   1.081       .  S
Co59         N77   2.091       .  S
Co59         N67   2.079   1_455  S
Co59         N99   2.066       .  S
Co59         N75   2.100   1_455  S
Co59       Cl103   2.445       .  S
N60          C98   1.340       .  A
N60          N67   1.319       .  A
N60         Co61   2.103       .  S
Co61         N64   2.075       .  S
Co61         N81   2.082       .  S
Co61         N68   2.098       .  S
Co61       Cl103   2.457   1_655  S
C62         N100   1.343       .  A
C62         C660   1.458       .  S
N63          N70   1.319       .  A
N63          N93   1.324       .  A
N63         Co96   2.085       .  S
N64          N82   1.322       .  A
N64         N100   1.321       .  A
N65          C94   1.352       .  A
N65          N75   1.322       .  A
H66          C91   1.082       .  S
N67          N88   1.328       .  A
N68          N86   1.320       .  A
N68          N73   1.330       .  A
C69          N73   1.354       .  A
C69          C97   1.450       .  S
C69         C646   1.472       .  S
N70          C85   1.353       .  A
N70         Co92   2.121       .  S
C71          N99   1.336       .  A
C71          C74   1.450       .  S
C71         H105   1.081       .  S
C74          N95   1.355       .  A
C74         C699   1.479       .  S
N75          N81   1.318       .  A
N76         C102   1.336       .  A
N76          N78   1.317       .  A
N76         Co92   2.048       .  S
N77          C91   1.337       .  A
N78         N106   1.321       .  A
N78         Co96   2.094       .  S
H79         C102   1.080       .  S
H80          C97   1.081       .  S
N82         Co96   2.086   1_655  S
N83          N95   1.330       .  A
N83          N99   1.320       .  A
N83         Co92   2.111       .  S
C84          N88   1.351       .  A
C84          C98   1.470       .  S
C84         C632   1.495       .  S
C85         C104   1.475       .  S
C85          H89   1.081       .  S
N86          C97   1.333       .  A
N86         Co96   2.069   1_655  S
C90         N106   1.353       .  A
C90         C102   1.451       .  S
C90         C671   1.467       .  S
Co92       Cl103   2.462       .  S
N93         C104   1.350       .  A
C94         C615   1.491       .  S
Co96       Cl103   2.445       .  S
C104        C685   1.497       .  S
C107        N125   1.340       .  A
C107        C144   1.467       .  S
C107        C601   1.466       .  S
N108        N125   1.319       .  A
N108        N130   1.318       .  A
N108       Co145   2.055       .  S
C109        N134   1.344       .  A
C109        C147   1.474       .  S
C109        H154   1.081       .  S
H110        C151   1.082       .  S
C111        N135   1.339       .  A
C111        C115   1.455       .  S
C111        H140   1.082       .  S
Co112       N130   2.094       .  S
Co112       N120   2.076       .  S
Co112       N152   2.076       .  S
Co112       N128   2.087       .  S
Co112      Cl156   2.453       .  S
N113        C151   1.340       .  A
N113        N120   1.322       .  A
N113       Co114   2.097       .  S
Co114       N117   2.102       .  S
Co114       N134   2.110       .  S
Co114       N121   2.137       .  S
Co114      Cl156   2.457       .  S
C115        N153   1.353       .  A
C115        C548   1.479       .  S
N116        N123   1.318       .  A
N116        N146   1.317       .  A
N116       Co149   2.066       .  S
N117        N135   1.320       .  A
N117        N153   1.329       .  A
N118        C147   1.348       .  A
N118        N128   1.326       .  A
H119        C144   1.081       .  S
N120        N141   1.325       .  A
N121        N139   1.320       .  A
N121        N126   1.332       .  A
C122        N126   1.365       .  A
C122        C150   1.457       .  S
C122        C534   1.502       .  S
N123        C138   1.342       .  A
N123       Co145   2.077       .  S
C124        N152   1.333       .  A
C124        C127   1.456       .  S
C124        H158   1.080       .  S
C127        N148   1.358       .  A
C127        C587   1.489       .  S
N128        N134   1.322       .  A
N129        C155   1.325       .  A
N129        N131   1.319       .  A
N129       Co145   2.048       .  S
N130        C144   1.346       .  A
N131        N159   1.324       .  A
N131       Co149   2.070       .  S
H132        C155   1.080       .  S
H133        C150   1.078       .  S
N135       Co149   2.080       .  S
N136        N148   1.332       .  A
N136        N152   1.319       .  A
N136       Co145   2.103       .  S
C137        N141   1.346       .  A
C137        C151   1.456       .  S
C137        C517   1.466       .  S
C138        C157   1.460       .  S
C138        H142   1.080       .  S
N139        C150   1.338       .  A
N139       Co149   2.066       .  S
C143        N159   1.349       .  A
C143        C155   1.454       .  S
C143        C559   1.466       .  S
Co145      Cl156   2.451       .  S
N146        C157   1.345       .  A
C147        C503   1.495       .  S
Co149      Cl156   2.449       .  S
C157        C573   1.463       .  S
O160        C168   1.299       .  A
O160       Co180   2.086       .  S
O161        C169   1.277       .  A
O161       Co181   2.051       .  S
O162        C170   1.269       .  A
O162      Co1019   1.983       .  S
O163       C1008   1.262   1_554  A
O163       Co183   2.016       .  S
O164        C170   1.274       .  A
O164       Co181   2.026       .  S
O165        C171   1.242       .  A
O165       Co180   1.932       .  S
O166        C169   1.256       .  A
O166       Co183   1.977       .  S
O167        C168   1.271       .  A
O167       Co182   1.868       .  S
C168        C475   1.472       .  S
C169        C531   1.511       .  S
C170        C618   1.499       .  S
C171        C492   1.453       .  S
C171       O1000   1.260       .  A
O172        C185   1.258       .  A
O172       Co180   1.945       .  S
O173        C186   1.262       .  A
O173       Co181   1.973       .  S
O174        C187   1.283       .  A
O174       Co182   2.092       .  S
O175        C188   1.275       .  A
O175       Co183   2.016       .  S
O176        C188   1.264       .  A
O176       Co181   1.980       .  S
O177        C187   1.230       .  A
O177       Co180   1.889       .  S
O178        C185   1.281       .  A
O178      Co1020   2.042       .  S
O179       C1023   1.273       .  A
O179       Co182   2.010       .  S
Co180      O1021   2.015       .  S
Co181       O184   2.070       .  S
Co182       O999   1.977       .  S
Co182      O1021   1.975       .  S
Co183      O1015   2.050   1_554  S
Co183       O184   2.066       .  S
O184      Co1017   2.017   1_554  S
O184      Co1019   1.983       .  S
C185        C545   1.478       .  S
C186        C447   1.475       .  S
C186       O1016   1.273       .  A
C187        C629   1.481       .  S
C188        C461   1.482       .  S
O189        C197   1.294       .  A
O189       Co209   2.064       .  S
O190        C198   1.263       .  A
O190       Co210   1.972       .  S
O191        C199   1.258       .  A
O191      Co1048   2.021   1_554  S
O192       C1037   1.293   1_554  A
O192       Co212   2.068   1_554  S
O193        C199   1.259       .  A
O193       Co210   1.983       .  S
O194        C200   1.227       .  A
O194       Co209   1.911       .  S
O195        C198   1.266       .  A
O195       Co212   1.997   1_554  S
O196        C197   1.273       .  A
O196       Co211   1.891       .  S
C197        C436   1.472       .  S
C198        C643   1.476       .  S
C199        C783   1.485       .  S
C200        C478   1.469       .  S
C200       O1029   1.270       .  A
O201        C214   1.288       .  A
O201       Co209   2.035       .  S
O202        C215   1.281       .  A
O202       Co210   1.998       .  S
O203        C216   1.269       .  A
O203       Co211   2.046       .  S
O204        C217   1.262       .  A
O204       Co212   1.992       .  S
O205        C217   1.272   1_554  A
O205       Co210   2.021       .  S
O206        C216   1.226       .  A
O206       Co209   1.873       .  S
O207        C214   1.279       .  A
O207      Co1049   1.895       .  S
O208       C1052   1.275       .  A
O208       Co211   1.990       .  S
Co209      O1050   2.075       .  S
Co210       O213   2.050   1_554  S
Co211      O1028   1.997       .  S
Co211      O1050   1.925       .  S
Co212      O1044   1.908       .  S
Co212       O213   2.006       .  S
O213      Co1046   2.080       .  S
O213      Co1048   1.870       .  S
C214        C657   1.457       .  S
C215        C408   1.481   1_554  S
C215       O1045   1.276       .  A
C216        C800   1.465       .  S
C217        C419   1.506       .  S
O218        C226   1.298       .  A
O218       Co238   1.969       .  S
O219        C227   1.264       .  A
O219       Co239   1.958       .  S
O220        C228   1.260       .  A
O220      Co1077   1.992   1_554  S
O221       C1066   1.272   1_556  A
O221       Co241   2.014       .  S
O222        C228   1.262       .  A
O222       Co239   2.005       .  S
O223        C229   1.271       .  A
O223       Co238   1.984       .  S
O224        C227   1.272       .  A
O224       Co241   2.028   1_554  S
O225        C226   1.294       .  A
O225       Co240   1.994       .  S
C226        C391   1.475       .  S
C227        C702   1.485       .  S
C228        C727   1.479       .  S
C229        C377   1.500       .  S
C229       O1058   1.271       .  A
O230        C243   1.281       .  A
O230       Co238   2.037       .  S
O231        C244   1.281       .  A
O231       Co239   2.008       .  S
O232        C245   1.238       .  A
O232       Co240   1.999       .  S
O233        C246   1.242       .  A
O233       Co241   1.937       .  S
O234        C246   1.272   1_554  A
O234       Co239   2.050       .  S
O235        C245   1.238       .  A
O235       Co238   2.017       .  S
O236        C243   1.254       .  A
O236      Co1078   1.935       .  S
O237       C1081   1.275       .  A
O237       Co240   1.996       .  S
Co238      O1079   2.077       .  S
Co239       O242   2.073   1_554  S
Co240      O1057   1.995       .  S
Co240      O1079   1.982       .  S
Co241      O1073   1.924       .  S
Co241       O242   2.023       .  S
O242      Co1075   2.078       .  S
O242      Co1077   1.981       .  S
C243        C716   1.461       .  S
C244        C363   1.491   1_554  S
C244       O1074   1.273       .  A
C245        C744   1.486       .  S
C246        C450   1.493       .  S
O247        C255   1.278       .  A
O247       Co267   1.961       .  S
O248        C256   1.259       .  A
O248       Co268   1.990       .  S
O249        C257   1.288       .  A
O249       Co269   2.033       .  S
O250        C258   1.274       .  A
O250       Co270   2.015       .  S
O251       C1094   1.273       .  A
O251       Co268   1.933       .  S
O252        C258   1.266       .  A
O252      Co1104   1.981   1_554  S
O253        C256   1.256       .  A
O253       Co270   1.970       .  S
O254        C255   1.278       .  A
O254       Co269   2.013       .  S
C255        C394   1.484       .  S
C256        C562   1.471       .  S
C257        C349   1.479       .  S
C257       O1088   1.270       .  A
C258        C758   1.486       .  S
O259       C1109   1.276       .  A
O259       Co267   1.984       .  S
O260        C273   1.261       .  A
O260      Co1105   1.992       .  S
O261        C274   1.264       .  A
O261       Co269   1.997       .  S
O262        C275   1.282       .  A
O262       Co270   2.012       .  S
O263        C275   1.274       .  A
O263       Co268   1.993       .  S
O264        C274   1.261       .  A
O264       Co267   1.995       .  S
O265        C272   1.271       .  A
O265       Co270   1.990       .  S
O266        C273   1.251       .  A
O266       Co269   1.938       .  S
Co267      O1089   1.980       .  S
Co267      O1108   1.931       .  S
Co268      O1097   1.997   1_554  S
Co268       O271   1.926       .  S
Co269      O1108   2.104       .  S
Co270       O271   2.051       .  S
O271      Co1106   2.099   1_554  S
O271      Co1104   1.935   1_554  S
C272        C405   1.476       .  S
C272       O1096   1.275       .  A
C273        C576   1.463       .  S
C274        C769   1.490       .  S
C275        C464   1.482       .  S
O276        C284   1.239       .  A
O276       Co296   2.005       .  S
O277        C285   1.257       .  A
O277       Co297   1.961       .  S
O278        C286   1.281       .  A
O278       Co298   2.047       .  S
O279        C287   1.278       .  A
O279       Co299   1.994       .  S
O280        C286   1.261       .  A
O280      Co1134   1.935       .  S
O281       C1124   1.286       .  A
O281       Co296   2.025       .  S
O282        C285   1.276   1_554  A
O282       Co299   2.043       .  S
O283        C284   1.247       .  A
O283       Co298   2.032       .  S
C284        C688   1.502       .  S
C285        C335   1.509       .  S
C286        C604   1.468       .  S
C287        C422   1.489   1_554  S
C287       O1118   1.285       .  A
O288        C301   1.257       .  A
O288      Co1133   1.980   1_554  S
O289       C1139   1.265       .  A
O289       Co297   1.988   1_554  S
O290        C303   1.294       .  A
O290       Co298   1.982       .  S
O291        C304   1.256       .  A
O291       Co299   1.960       .  S
O292        C304   1.269       .  A
O292       Co297   2.026   1_554  S
O293        C303   1.303       .  A
O293       Co296   2.024       .  S
O294        C301   1.255       .  A
O294       Co299   1.975       .  S
O295        C302   1.265       .  A
O295       Co298   1.989       .  S
Co296      O1125   1.986       .  S
Co296      O1137   2.009       .  S
Co297      O1117   1.936       .  S
Co297       O300   2.053       .  S
Co298      O1137   2.105       .  S
Co299       O300   2.082   1_554  S
O300      Co1133   2.014       .  S
O300      Co1135   2.102       .  S
C301        C674   1.472       .  S
C302        C352   1.480       .  S
C302       O1126   1.266       .  A
C303        C380   1.501       .  S
C304        C590   1.476       .  S
O305        C313   1.267       .  A
O305       Co325   1.888       .  S
O306        C314   1.252       .  A
O306       Co326   1.957       .  S
O307        C315   1.231       .  A
O307       Co327   1.913       .  S
O308        C316   1.276       .  A
O308       Co328   2.025       .  S
O309       C1152   1.251   1_554  A
O309       Co326   1.962       .  S
O310        C316   1.268       .  A
O310      Co1162   1.975       .  S
O311        C314   1.273       .  A
O311       Co328   2.038       .  S
O312        C313   1.302       .  A
O312       Co327   2.114       .  S
C313        C433   1.480       .  S
C314        C506   1.492       .  S
C315        C489   1.439       .  S
C315       O1146   1.254       .  A
C316        C814   1.491       .  S
O317       C1167   1.267       .  A
O317       Co325   1.980       .  S
O318        C331   1.283       .  A
O318      Co1163   2.047       .  S
O319        C332   1.231       .  A
O319       Co327   1.906       .  S
O320        C333   1.267       .  A
O320       Co328   1.978       .  S
O321        C333   1.280       .  A
O321       Co326   2.041       .  S
O322        C332   1.281       .  A
O322       Co325   2.103       .  S
O323        C330   1.264       .  A
O323       Co328   1.994       .  S
O324        C331   1.264       .  A
O324       Co327   1.950       .  S
Co325      O1147   1.986       .  S
Co325      O1166   1.987       .  S
Co326      O1155   2.030   1_554  S
Co326       O329   2.018       .  S
Co327      O1166   2.053       .  S
Co328       O329   2.081       .  S
O329      Co1162   2.003       .  S
O329      Co1164   2.037   1_554  S
C330        C366   1.480       .  S
C330       O1154   1.264       .  A
C331        C520   1.492       .  S
C332        C825   1.496       .  S
C333        C338   1.493       .  S
C334        H341   1.080       .  S
C334        C335   1.410   1_554  A
C334        C339   1.411       .  A
C335        C336   1.422       .  A
C336        C337   1.407       .  A
C336        N343   1.428       .  S
C337        H342   1.070       .  S
C337        C338   1.399   1_556  A
C338        C339   1.413       .  A
C339        N340   1.428       .  S
N340        O344   1.262       .  A
N340        O345   1.262       .  A
N343       O1184   1.262       .  A
N343        O346   1.262       .  A
O347       N1180   1.262       .  A
C348        H355   1.082       .  S
C348       C1186   1.406       .  A
C348       C1190   1.390       .  A
C349        C350   1.409       .  A
C349       C1185   1.406       .  A
C350        C351   1.398       .  A
C350        N357   1.429       .  S
C351        H356   1.083       .  S
C351        C352   1.410       .  A
C352        C353   1.410       .  A
C353       C1185   1.394       .  A
C353       N1191   1.427       .  S
N354       C1190   1.425       .  S
N354        O358   1.261       .  A
N354       O1196   1.263   1_554  A
N357        O361   1.262       .  A
N357       O1197   1.261       .  A
O359       N1191   1.262       .  A
O360       N1194   1.262       .  A
C362       H1206   1.080       .  S
C362        C363   1.407   1_554  A
C362        C367   1.409   1_565  A
C363        C364   1.419       .  A
C364        C365   1.395   1_565  A
C364        N371   1.429       .  S
C365        H370   1.082       .  S
C365        C366   1.398   1_556  A
C366        C367   1.412       .  A
C367       N1205   1.428       .  S
N368       C1204   1.429       .  S
N368        O372   1.261       .  A
N368       O1210   1.261       .  A
H369       C1199   1.082       .  S
N371        O375   1.261       .  A
N371       O1211   1.261       .  A
O373       N1205   1.262       .  A
O374       N1208   1.260       .  A
C376        H383   1.082       .  S
C376        C377   1.412       .  A
C376        C381   1.404       .  A
C377        C378   1.410       .  A
C378        C379   1.412       .  A
C378        N385   1.430       .  S
C379        H384   1.081       .  S
C379        C380   1.415       .  A
C380        C381   1.410       .  A
C381        N382   1.428       .  S
N382       O1223   1.262       .  A
N382        O387   1.262       .  A
N385        O389   1.262       .  A
N385       O1225   1.262       .  A
O386       N1219   1.262       .  A
O388       N1222   1.262       .  A
C390        H397   1.082       .  S
C390        C391   1.393       .  A
C390        C395   1.391       .  A
C391       C1229   1.413       .  A
C392        C393   1.402       .  A
C392       C1228   1.413       .  A
C392        N399   1.426   1_556  S
C393        H398   1.077   1_556  S
C393       C1231   1.398       .  A
C394        C395   1.423       .  A
C394       C1230   1.401       .  A
C395        N396   1.431       .  S
N396        O400   1.262       .  A
N396        O401   1.263       .  A
N399        O403   1.261       .  A
N399       O1239   1.262       .  A
O402       N1236   1.262       .  A
C404        H411   1.081       .  S
C404        C409   1.385   1_565  A
C404       C1242   1.392       .  A
C405        C406   1.415       .  A
C405       C1241   1.394   1_554  A
C406        C407   1.411   1_565  A
C406        N413   1.429       .  S
C407        H412   1.081       .  S
C407        C408   1.409   1_554  A
C408       C1246   1.414       .  A
C409       C1245   1.413       .  A
C409        N410   1.426       .  S
N410        O414   1.260       .  A
N410        O415   1.262       .  A
N413        O417   1.262       .  A
N413        O416   1.262       .  A
C418        H425   1.080       .  S
C418        C419   1.413   1_554  A
C418        C423   1.415   1_655  A
C419       C1257   1.418       .  A
C420        C421   1.400   1_655  A
C420       C1256   1.417       .  A
C420        N427   1.422       .  S
C421        H426   1.075       .  S
C421       C1259   1.396       .  A
C422        C423   1.412   1_556  A
C422       C1258   1.391       .  A
C423        N424   1.427       .  S
N424        O428   1.262       .  A
N424        O429   1.262       .  A
N427        O431   1.260       .  A
N427       O1267   1.262       .  A
O430       N1264   1.262       .  A
C432        H439   1.086       .  S
C432        C433   1.406       .  A
C432        C437   1.401       .  A
C433       C1271   1.410       .  A
C434        C435   1.404       .  A
C434       C1270   1.418       .  A
C434        N441   1.427       .  S
C435        H440   1.081       .  S
C435       C1273   1.399       .  A
C436        C437   1.406       .  A
C436       C1272   1.401       .  A
C437        N438   1.429       .  S
N438        O442   1.262       .  A
N438        O443   1.262       .  A
N441        O445   1.262       .  A
N441        O444   1.260       .  A
C446        H453   1.086       .  S
C446        C447   1.391   1_556  A
C446        C451   1.395   1_655  A
C447        C448   1.413       .  A
C448        C449   1.406   1_655  A
C448        N455   1.427       .  S
C449        H454   1.085       .  S
C449        C450   1.404   1_554  A
C450        C451   1.426       .  A
C451        N452   1.429       .  S
N452        O456   1.262       .  A
N452       O1294   1.262       .  A
N455       O1296   1.262       .  A
N455        O458   1.261       .  A
O457       N1289   1.262       .  A
O459       N1292   1.261       .  A
C460        H467   1.083       .  S
C460        C461   1.398       .  A
C460        C465   1.394       .  A
C461       C1299   1.414   1_554  A
C462        C463   1.414       .  A
C462       C1298   1.417       .  A
C462        N469   1.427       .  S
C463        H468   1.081       .  S
C463       C1301   1.406       .  A
C464        C465   1.414       .  A
C464       C1300   1.402   1_554  A
C465        N466   1.428       .  S
N466        O470   1.262       .  A
N466        O471   1.261       .  A
N469        O473   1.262       .  A
N469        O472   1.260       .  A
C474        H481   1.083       .  S
C474        C479   1.386       .  A
C474       C1312   1.403       .  A
C475        C476   1.411       .  A
C475       C1311   1.400       .  A
C476        C477   1.395       .  A
C476        N483   1.426       .  S
C477        H482   1.085       .  S
C477        C478   1.399       .  A
C478       C1316   1.424       .  A
C479       C1315   1.405       .  A
C479        N480   1.426       .  S
N480        O484   1.261       .  A
N480        O485   1.262       .  A
N483        O487   1.262       .  A
N483        O486   1.261       .  A
C488        H495   1.083       .  S
C488        C489   1.390       .  A
C488        C493   1.383       .  A
C489        C490   1.408       .  A
C490        C491   1.384       .  A
C490        N497   1.432       .  S
C491        H496   1.084       .  S
C491        C492   1.405       .  A
C492        C493   1.403       .  A
C493        N494   1.423       .  S
N494        O498   1.256       .  A
N494       O1336   1.262       .  A
N497       O1338   1.262       .  A
N497        O500   1.262       .  A
O499       N1331   1.261       .  A
O501       N1334   1.261       .  A
C502        H509   1.078       .  S
C502        C503   1.402       .  A
C502        C507   1.401       .  A
C503        C504   1.420       .  A
C504        C505   1.406       .  A
C504        N511   1.428       .  S
C505        H510   1.080       .  S
C505        C506   1.402       .  A
C506        C507   1.418       .  A
C507        N508   1.430       .  S
N508        O512   1.262       .  A
N508        O513   1.262       .  A
N511        O515   1.262       .  A
N511        O514   1.261       .  A
C516        H523   1.084       .  S
C516        C517   1.393       .  A
C516        C521   1.398       .  A
C517        C518   1.403       .  A
C518        C519   1.404       .  A
C518        N525   1.429       .  S
C519        H524   1.083       .  S
C519        C520   1.411       .  A
C520        C521   1.422       .  A
C521        N522   1.429       .  S
N522        O526   1.262       .  A
N522        O527   1.262       .  A
N525        O529   1.261       .  A
N525        O528   1.262       .  A
C530        H537   1.080       .  S
C530        C531   1.403       .  A
C530        C535   1.408       .  A
C531        C532   1.423       .  A
C532        C533   1.406       .  A
C532        N539   1.420       .  S
C533        H538   1.081       .  S
C533        C534   1.396       .  A
C534        C535   1.421       .  A
C535        N536   1.425       .  S
N536        O540   1.262       .  A
N536        O541   1.261       .  A
N539        O543   1.261       .  A
N539        O542   1.263       .  A
C544        H551   1.081       .  S
C544        C545   1.404       .  A
C544        C549   1.397       .  A
C545        C546   1.413       .  A
C546        C547   1.403       .  A
C546        N553   1.428       .  S
C547        H552   1.081       .  S
C547        C548   1.404       .  A
C548        C549   1.407       .  A
C549        N550   1.426       .  S
N550        O554   1.262       .  A
N550        O555   1.261       .  A
N553        O557   1.261       .  A
N553        O556   1.262       .  A
C558        H565   1.074       .  S
C558        C559   1.399       .  A
C558        C563   1.385       .  A
C559        C560   1.408       .  A
C560        C561   1.397       .  A
C560        N567   1.429       .  S
C561        H566   1.080       .  S
C561        C562   1.409       .  A
C562        C563   1.404       .  A
C563        N564   1.425       .  S
N564        O568   1.259       .  A
N564        O569   1.261       .  A
N567        O571   1.262       .  A
N567        O570   1.260       .  A
C572        H579   1.082       .  S
C572        C573   1.406       .  A
C572        C577   1.392       .  A
C573        C574   1.407       .  A
C574        C575   1.389       .  A
C574        N581   1.430       .  S
C575        H580   1.082       .  S
C575        C576   1.408       .  A
C576        C577   1.402       .  A
C577        N578   1.428       .  S
N578        O582   1.262       .  A
N578        O583   1.262       .  A
N581        O585   1.262       .  A
N581        O584   1.262       .  A
C586        H593   1.079       .  S
C586        C587   1.409       .  A
C586        C591   1.399       .  A
C587        C588   1.412       .  A
C588        C589   1.404       .  A
C588        N595   1.428       .  S
C589        H594   1.082       .  S
C589        C590   1.405       .  A
C590        C591   1.404       .  A
C591        N592   1.428       .  S
N592        O596   1.262       .  A
N592        O597   1.262       .  A
N595        O599   1.262       .  A
N595        O598   1.262       .  A
C600        H607   1.083       .  S
C600        C601   1.407       .  A
C600        C605   1.403       .  A
C601        C602   1.402       .  A
C602        C603   1.390       .  A
C602        N609   1.428       .  S
C603        H608   1.084       .  S
C603        C604   1.406       .  A
C604        C605   1.408       .  A
C605        N606   1.429       .  S
N606        O610   1.262       .  A
N606        O611   1.262       .  A
N609        O613   1.262       .  A
N609        O612   1.262       .  A
C614        H621   1.081       .  S
C614        C615   1.403       .  A
C614        C619   1.399       .  A
C615        C616   1.414       .  A
C616        C617   1.406       .  A
C616        N623   1.428       .  S
C617        H622   1.081       .  S
C617        C618   1.410       .  A
C618        C619   1.417       .  A
C619        N620   1.428       .  S
N620        O624   1.262       .  A
N620        O625   1.262       .  A
N623        O627   1.262       .  A
N623        O626   1.262       .  A
C628        H635   1.085       .  S
C628        C629   1.395       .  A
C628        C633   1.408       .  A
C629        C630   1.423       .  A
C630        C631   1.394       .  A
C630        N637   1.431       .  S
C631        H636   1.084       .  S
C631        C632   1.398       .  A
C632        C633   1.420       .  A
C633        N634   1.424       .  S
N634        O638   1.262       .  A
N634        O639   1.261       .  A
N637        O641   1.262       .  A
N637        O640   1.263       .  A
C642        H649   1.082       .  S
C642        C643   1.406       .  A
C642        C647   1.398       .  A
C643        C644   1.409       .  A
C644        C645   1.400       .  A
C644        N651   1.429       .  S
C645        H650   1.082       .  S
C645        C646   1.406       .  A
C646        C647   1.406       .  A
C647        N648   1.428       .  S
N648        O652   1.262       .  A
N648        O653   1.262       .  A
N651        O655   1.262       .  A
N651        O654   1.262       .  A
C656        H663   1.083       .  S
C656        C657   1.392       .  A
C656        C661   1.390       .  A
C657        C658   1.417       .  A
C658        C659   1.396       .  A
C658        N665   1.432       .  S
C659        H664   1.082       .  S
C659        C660   1.397       .  A
C660        C661   1.408       .  A
C661        N662   1.425       .  S
N662        O666   1.260       .  A
N662        O667   1.261       .  A
N665        O669   1.262       .  A
N665        O668   1.262       .  A
C670        H677   1.082       .  S
C670        C671   1.396       .  A
C670        C675   1.388       .  A
C671        C672   1.414       .  A
C672        C673   1.398       .  A
C672        N679   1.429       .  S
C673        H678   1.082       .  S
C673        C674   1.403       .  A
C674        C675   1.415       .  A
C675        N676   1.429       .  S
N676        O680   1.262       .  A
N676        O681   1.262       .  A
N679        O683   1.262       .  A
N679        O682   1.262       .  A
C684        H691   1.083       .  S
C684        C685   1.406       .  A
C684        C689   1.406       .  A
C685        C686   1.413       .  A
C686        C687   1.409       .  A
C686        N693   1.429       .  S
C687        H692   1.081       .  S
C687        C688   1.412       .  A
C688        C689   1.412       .  A
C689        N690   1.424       .  S
N690        O694   1.262       .  A
N690        O695   1.262       .  A
N693        O697   1.262       .  A
N693        O696   1.261       .  A
C698        H705   1.083       .  S
C698        C699   1.408       .  A
C698        C703   1.405       .  A
C699        C700   1.405       .  A
C700        C701   1.397       .  A
C700        N707   1.428       .  S
C701        H706   1.083       .  S
C701        C702   1.408       .  A
C702        C703   1.413       .  A
C703        N704   1.429       .  S
N704        O708   1.262       .  A
N704        O709   1.262       .  A
N707        O711   1.262       .  A
N707        O710   1.262       .  A
C712        H719   1.082       .  S
C712        C713   1.392       .  A
C712        C717   1.388       .  A
C713        C714   1.410       .  A
C714        C715   1.396       .  A
C714        N721   1.426       .  S
C715        H720   1.082       .  S
C715        C716   1.398       .  A
C716        C717   1.418       .  A
C717        N718   1.430       .  S
N718        O722   1.261       .  A
N718        O723   1.262       .  A
N721        O725   1.262       .  A
N721        O724   1.260       .  A
C726        H733   1.082       .  S
C726        C727   1.400       .  A
C726        C731   1.408       .  A
C727        C728   1.412       .  A
C728        C729   1.397       .  A
C728        N735   1.429       .  S
C729        H734   1.082       .  S
C729        C730   1.402       .  A
C730        C731   1.419       .  A
C731        N732   1.427       .  S
N732        O736   1.262       .  A
N732        O737   1.262       .  A
N735        O739   1.262       .  A
N735        O738   1.262       .  A
C740        H747   1.078       .  S
C740        C741   1.394       .  A
C740        C745   1.393       .  A
C741        C742   1.415       .  A
C742        C743   1.404       .  A
C742        N749   1.427       .  S
C743        H748   1.072       .  S
C743        C744   1.400       .  A
C744        C745   1.422       .  A
C745        N746   1.428       .  S
N746        O750   1.261       .  A
N746        O751   1.261       .  A
N749        O753   1.262       .  A
N749        O752   1.262       .  A
C754        H761   1.084       .  S
C754        C755   1.393       .  A
C754        C759   1.397       .  A
C755        C756   1.405       .  A
C756        C757   1.402       .  A
C756        N763   1.430       .  S
C757        H762   1.084       .  S
C757        C758   1.408       .  A
C758        C759   1.416       .  A
C759        N760   1.424       .  S
N760        O764   1.262       .  A
N760        O765   1.260       .  A
N763        O767   1.261       .  A
N763        O766   1.262       .  A
C768        H775   1.077       .  S
C768        C769   1.407       .  A
C768        C773   1.399       .  A
C769        C770   1.411       .  A
C770        C771   1.402       .  A
C770        N777   1.427       .  S
C771        H776   1.079       .  S
C771        C772   1.408       .  A
C772        C773   1.407       .  A
C773        N774   1.429       .  S
N774        O778   1.262       .  A
N774        O779   1.262       .  A
N777        O781   1.261       .  A
N777        O780   1.262       .  A
C782        H789   1.082       .  S
C782        C783   1.406       .  A
C782        C787   1.395       .  A
C783        C784   1.413       .  A
C784        C785   1.403       .  A
C784        N791   1.430       .  S
C785        H790   1.078       .  S
C785        C786   1.408       .  A
C786        C787   1.412       .  A
C787        N788   1.429       .  S
N788        O792   1.262       .  A
N788        O793   1.262       .  A
N791        O795   1.261       .  A
N791        O794   1.262       .  A
C796        H803   1.076       .  S
C796        C797   1.395       .  A
C796        C801   1.380       .  A
C797        C798   1.417       .  A
C798        C799   1.401       .  A
C798        N805   1.426       .  S
C799        H804   1.078       .  S
C799        C800   1.392       .  A
C800        C801   1.421       .  A
C801        N802   1.434       .  S
N802        O806   1.262       .  A
N802        O807   1.262       .  A
N805        O809   1.262       .  A
N805        O808   1.262       .  A
C810        H817   1.081       .  S
C810        C811   1.402       .  A
C810        C815   1.401       .  A
C811        C812   1.410       .  A
C812        C813   1.401       .  A
C812        N819   1.429       .  S
C813        H818   1.081       .  S
C813        C814   1.408       .  A
C814        C815   1.416       .  A
C815        N816   1.429       .  S
N816        O820   1.262       .  A
N816        O821   1.262       .  A
N819        O823   1.262       .  A
N819        O822   1.262       .  A
C824        H831   1.082       .  S
C824        C825   1.412       .  A
C824        C829   1.407       .  A
C825        C826   1.404       .  A
C826        C827   1.413       .  A
C826        N833   1.425       .  S
C827        H832   1.079       .  S
C827        C828   1.413       .  A
C828        C829   1.415       .  A
C829        N830   1.430       .  S
N830        O834   1.262       .  A
N830        O835   1.262       .  A
N833        O837   1.260       .  A
N833        O836   1.261       .  A
C838        N856   1.353       .  A
C838        C875   1.466       .  S
C838       C1665   1.496       .  S
N839        N856   1.327       .  A
N839        N861   1.320       .  A
N839       Co876   2.095       .  S
C840        N865   1.347       .  A
C840        C878   1.464       .  S
C840        H885   1.080       .  S
H841        C882   1.082       .  S
C842        N866   1.332       .  A
C842        C846   1.455       .  S
C842        H871   1.081       .  S
Co843       N861   2.108   1_565  S
Co843       N851   2.057       .  S
Co843       N883   2.071   1_565  S
Co843       N859   2.111       .  S
Co843      Cl887   2.445       .  S
N844        C882   1.344       .  A
N844        N851   1.320       .  A
N844       Co845   2.109       .  S
Co845       N848   2.104       .  S
Co845       N865   2.092       .  S
Co845       N852   2.101       .  S
Co845      Cl887   2.464       .  S
C846        N884   1.358       .  A
C846       C1609   1.487       .  S
N847        N854   1.318       .  A
N847        N877   1.325       .  A
N847       Co880   2.070   1_545  S
N848        N866   1.319       .  A
N848        N884   1.328       .  A
N849        C878   1.356       .  A
N849        N859   1.325       .  A
H850        C875   1.079       .  S
N851        N872   1.321       .  A
N852        N870   1.320       .  A
N852        N857   1.327       .  A
C853        N857   1.352       .  A
C853        C881   1.449       .  S
C853       C1592   1.466       .  S
N854        C869   1.336       .  A
N854       Co876   2.084       .  S
C855        N883   1.335       .  A
C855        C858   1.461       .  S
C855        H889   1.081       .  S
C858        N879   1.354       .  A
C858       C1648   1.487       .  S
N859        N865   1.321       .  A
N860        C886   1.339       .  A
N860        N862   1.319       .  A
N860       Co876   2.085       .  S
N861        C875   1.346       .  A
N862        N890   1.324       .  A
N862       Co880   2.080   1_545  S
H863        C886   1.081       .  S
H864        C881   1.081       .  S
N866       Co880   2.060       .  S
N867        N879   1.329       .  A
N867        N883   1.318       .  A
N867       Co876   2.096       .  S
C868        N872   1.341       .  A
C868        C882   1.473       .  S
C868       C1578   1.481       .  S
C869        C888   1.463       .  S
C869        H873   1.080       .  S
N870        C881   1.336       .  A
N870       Co880   2.065       .  S
C874        N890   1.349       .  A
C874        C886   1.465       .  S
C874       C1623   1.484       .  S
Co876      Cl887   2.457   1_545  S
N877        C888   1.348       .  A
C878       C1567   1.493       .  S
Co880      Cl887   2.446       .  S
C888       C1634   1.479       .  S
C891        N909   1.341       .  A
C891        C928   1.451       .  S
C891       C1550   1.447       .  S
N892        N909   1.319       .  A
N892        N914   1.319       .  A
N892       Co929   2.048       .  S
C893        N918   1.344       .  A
C893        C931   1.462       .  S
C893        H938   1.080       .  S
H894        C935   1.083       .  S
C895        N919   1.342       .  A
C895        C899   1.456       .  S
C895        H924   1.081   1_655  S
Co896       N914   2.072       .  S
Co896       N904   2.080   1_455  S
Co896       N936   2.067       .  S
Co896       N912   2.095   1_455  S
Co896      Cl940   2.443       .  S
N897        C935   1.344       .  A
N897        N904   1.319       .  A
N897       Co898   2.111       .  S
Co898       N901   2.064       .  S
Co898       N918   2.071       .  S
Co898       N905   2.099       .  S
Co898      Cl940   2.458   1_655  S
C899        N937   1.342       .  A
C899       C1497   1.458       .  S
N900        N907   1.319       .  A
N900        N930   1.320       .  A
N900       Co933   2.073       .  S
N901        N919   1.322       .  A
N901        N937   1.320       .  A
N902        C931   1.352       .  A
N902        N912   1.322       .  A
H903        C928   1.081       .  S
N904        N925   1.327       .  A
N905        N923   1.321       .  A
N905        N910   1.329       .  A
C906        N910   1.352       .  A
C906        C934   1.451       .  S
C906       C1483   1.471       .  S
N907        C922   1.352       .  A
N907       Co929   2.113       .  S
C908        N936   1.334       .  A
C908        C911   1.450       .  S
C908        H942   1.081       .  S
C911        N932   1.353       .  A
C911       C1536   1.472       .  S
N912        N918   1.317       .  A
N913        C939   1.337       .  A
N913        N915   1.317       .  A
N913       Co929   2.051       .  S
N914        C928   1.335       .  A
N915        N943   1.324       .  A
N915       Co933   2.101       .  S
H916        C939   1.081       .  S
H917        C934   1.082       .  S
N919       Co933   2.091   1_655  S
N920        N932   1.328       .  A
N920        N936   1.321       .  A
N920       Co929   2.101       .  S
C921        N925   1.349       .  A
C921        C935   1.469       .  S
C921       C1469   1.485       .  S
C922        C941   1.474       .  S
C922        H926   1.081       .  S
N923        C934   1.331       .  A
N923       Co933   2.068   1_655  S
C927        N943   1.355       .  A
C927        C939   1.450       .  S
C927       C1508   1.470       .  S
Co929      Cl940   2.458       .  S
N930        C941   1.347       .  A
C931       C1452   1.483       .  S
Co933      Cl940   2.441       .  S
C941       C1522   1.490       .  S
C944        N962   1.342       .  A
C944        C981   1.470       .  S
C944       C1438   1.475       .  S
N945        N962   1.321       .  A
N945        N967   1.318       .  A
N945       Co982   2.062       .  S
C946        N971   1.348       .  A
C946        C984   1.478       .  S
C946        H991   1.081       .  S
H947        C988   1.081       .  S
C948        N972   1.341       .  A
C948        C952   1.454       .  S
C948        H977   1.082       .  S
Co949       N967   2.105       .  S
Co949       N957   2.075       .  S
Co949       N989   2.075       .  S
Co949       N965   2.093       .  S
Co949      Cl993   2.454       .  S
N950        C988   1.341       .  A
N950        N957   1.323       .  A
N950       Co951   2.101       .  S
Co951       N954   2.110       .  S
Co951       N971   2.120       .  S
Co951       N958   2.136       .  S
Co951      Cl993   2.457       .  S
C952        N990   1.354       .  A
C952       C1385   1.479       .  S
N953        N960   1.319       .  A
N953        N983   1.317       .  A
N953       Co986   2.064       .  S
N954        N972   1.321       .  A
N954        N990   1.329       .  A
N955        C984   1.349       .  A
N955        N965   1.327       .  A
H956        C981   1.081       .  S
N957        N978   1.324       .  A
N958        N976   1.320       .  A
N958        N963   1.331       .  A
C959        N963   1.364       .  A
C959        C987   1.454       .  S
C959       C1371   1.497       .  S
N960        C975   1.341       .  A
N960       Co982   2.076       .  S
C961        N989   1.335       .  A
C961        C964   1.453       .  S
C961        H995   1.081       .  S
C964        N985   1.354       .  A
C964       C1424   1.479       .  S
N965        N971   1.322       .  A
N966        C992   1.330       .  A
N966        N968   1.318       .  A
N966       Co982   2.056       .  S
N967        C981   1.348       .  A
N968        N996   1.323       .  A
N968       Co986   2.072       .  S
H969        C992   1.080       .  S
H970        C987   1.079       .  S
N972       Co986   2.079       .  S
N973        N985   1.329       .  A
N973        N989   1.320       .  A
N973       Co982   2.095       .  S
C974        N978   1.346       .  A
C974        C988   1.458       .  S
C974       C1354   1.468       .  S
C975        C994   1.460       .  S
C975        H979   1.080       .  S
N976        C987   1.338       .  A
N976       Co986   2.063       .  S
C980        N996   1.349       .  A
C980        C992   1.457       .  S
C980       C1396   1.471       .  S
Co982      Cl993   2.454       .  S
N983        C994   1.344       .  A
C984       C1340   1.504       .  S
Co986      Cl993   2.452       .  S
C994       C1410   1.459       .  S
O997       C1005   1.298       .  A
O997      Co1017   2.076       .  S
O998       C1006   1.276       .  A
O998      Co1018   2.053       .  S
O999       C1007   1.267       .  A
O1000     Co1020   2.005       .  S
O1001      C1007   1.273       .  A
O1001     Co1018   2.023       .  S
O1002      C1008   1.243       .  A
O1002     Co1017   1.947       .  S
O1003      C1006   1.252       .  A
O1003     Co1020   1.967       .  S
O1004      C1005   1.271       .  A
O1004     Co1019   1.882   1_556  S
C1005      C1312   1.477       .  S
C1006      C1368   1.507       .  S
C1007      C1455   1.494       .  S
C1008      C1329   1.470       .  S
O1009      C1022   1.255       .  A
O1009     Co1017   1.940       .  S
O1010      C1023   1.263       .  A
O1010     Co1018   1.970       .  S
O1011      C1024   1.289       .  A
O1011     Co1019   2.109   1_556  S
O1012      C1025   1.276       .  A
O1012     Co1020   2.009       .  S
O1013      C1025   1.264       .  A
O1013     Co1018   1.979       .  S
O1014      C1024   1.230       .  A
O1014     Co1017   1.888       .  S
O1015      C1022   1.285       .  A
O1016     Co1019   2.008       .  S
Co1018     O1021   2.070       .  S
Co1020     O1021   2.059       .  S
C1022      C1382   1.484       .  S
C1023      C1284   1.472       .  S
C1024      C1466   1.500       .  S
C1025      C1298   1.485       .  S
O1026      C1034   1.308       .  A
O1026     Co1046   2.107       .  S
O1027      C1035   1.269       .  A
O1027     Co1047   1.976       .  S
O1028      C1036   1.263       .  A
O1029     Co1049   2.043       .  S
O1030      C1036   1.266       .  A
O1030     Co1047   1.995       .  S
O1031      C1037   1.268       .  A
O1031     Co1046   1.894       .  S
O1032      C1035   1.269       .  A
O1032     Co1049   1.982       .  S
O1033      C1034   1.272       .  A
O1033     Co1048   1.882       .  S
C1034      C1273   1.484       .  S
C1035      C1480   1.464       .  S
C1036      C1620   1.489       .  S
C1037      C1315   1.470       .  S
O1038      C1051   1.283       .  A
O1038     Co1046   2.059       .  S
O1039      C1052   1.278       .  A
O1039     Co1047   1.999       .  S
O1040      C1053   1.262       .  A
O1040     Co1048   2.005       .  S
O1041      C1054   1.270       .  A
O1041     Co1049   2.001       .  S
O1042      C1054   1.272       .  A
O1042     Co1047   2.021       .  S
O1043      C1053   1.248       .  A
O1043     Co1046   1.959       .  S
O1044      C1051   1.274       .  A
O1045     Co1048   1.988   1_554  S
Co1047     O1050   2.025       .  S
Co1049     O1050   1.944       .  S
C1051      C1494   1.465       .  S
C1052      C1245   1.478       .  S
C1053      C1637   1.485       .  S
C1054      C1256   1.515       .  S
O1055      C1063   1.298       .  A
O1055     Co1075   1.969       .  S
O1056      C1064   1.261       .  A
O1056     Co1076   1.949       .  S
O1057      C1065   1.259       .  A
O1058     Co1078   2.004       .  S
O1059      C1065   1.263       .  A
O1059     Co1076   2.008       .  S
O1060      C1066   1.272       .  A
O1060     Co1075   1.985   1_554  S
O1061      C1064   1.272       .  A
O1061     Co1078   2.029       .  S
O1062      C1063   1.294       .  A
O1062     Co1077   1.993       .  S
C1063      C1228   1.473       .  S
C1064      C1539   1.479       .  S
C1065      C1564   1.482       .  S
C1066      C1214   1.506       .  S
O1067      C1080   1.281       .  A
O1067     Co1075   2.035       .  S
O1068      C1081   1.277       .  A
O1068     Co1076   1.994       .  S
O1069      C1082   1.238       .  A
O1069     Co1077   2.000       .  S
O1070      C1083   1.244       .  A
O1070     Co1078   1.939       .  S
O1071      C1083   1.273       .  A
O1071     Co1076   2.046       .  S
O1072      C1082   1.237       .  A
O1072     Co1075   2.017       .  S
O1073      C1080   1.250       .  A
O1074     Co1077   1.994   1_554  S
Co1076     O1079   2.071       .  S
Co1078     O1079   2.026       .  S
C1080      C1553   1.452       .  S
C1081      C1200   1.481       .  S
C1082      C1581   1.485       .  S
C1083      C1287   1.493       .  S
O1084      C1092   1.276       .  A
O1084     Co1104   1.957       .  S
O1085      C1093   1.259       .  A
O1085     Co1105   1.991       .  S
O1086      C1094   1.288       .  A
O1086     Co1106   2.025   1_554  S
O1087      C1095   1.274       .  A
O1087     Co1107   2.019       .  S
O1088     Co1105   1.925       .  S
O1089      C1095   1.266       .  A
O1090      C1093   1.257       .  A
O1090     Co1107   1.971       .  S
O1091      C1092   1.278       .  A
O1091     Co1106   2.015       .  S
C1092      C1231   1.481       .  S
C1093      C1399   1.471       .  S
C1094      C1186   1.482       .  S
C1095      C1595   1.485       .  S
O1096     Co1104   1.981   1_554  S
O1097      C1110   1.262       .  A
O1098      C1111   1.263       .  A
O1098     Co1106   2.000       .  S
O1099      C1112   1.281       .  A
O1099     Co1107   2.019       .  S
O1100      C1112   1.270       .  A
O1100     Co1105   1.980       .  S
O1101      C1111   1.262       .  A
O1101     Co1104   1.996       .  S
O1102      C1109   1.271       .  A
O1102     Co1107   1.984       .  S
O1103      C1110   1.251       .  A
O1103     Co1106   1.932       .  S
Co1105     O1108   1.917       .  S
Co1107     O1108   2.053       .  S
C1109      C1242   1.471       .  S
C1110      C1413   1.463       .  S
C1111      C1606   1.494       .  S
C1112      C1301   1.486       .  S
O1113      C1121   1.237       .  A
O1113     Co1133   2.004       .  S
O1114      C1122   1.256       .  A
O1114     Co1134   1.955       .  S
O1115      C1123   1.283       .  A
O1115     Co1135   2.055       .  S
O1116      C1124   1.280       .  A
O1116     Co1136   2.005       .  S
O1117      C1123   1.261       .  A
O1118     Co1133   2.021   1_554  S
O1119      C1122   1.275       .  A
O1119     Co1136   2.043       .  S
O1120      C1121   1.244       .  A
O1120     Co1135   2.017       .  S
C1121      C1525   1.493       .  S
C1122      C1172   1.507       .  S
C1123      C1441   1.474       .  S
C1124      C1259   1.502       .  S
O1125      C1138   1.257       .  A
O1126     Co1134   1.985       .  S
O1127      C1140   1.294       .  A
O1127     Co1135   1.983       .  S
O1128      C1141   1.257       .  A
O1128     Co1136   1.959       .  S
O1129      C1141   1.268       .  A
O1129     Co1134   2.024       .  S
O1130      C1140   1.305       .  A
O1130     Co1133   2.041       .  S
O1131      C1138   1.256       .  A
O1131     Co1136   1.979       .  S
O1132      C1139   1.263       .  A
O1132     Co1135   1.979   1_554  S
Co1134     O1137   2.050       .  S
Co1136     O1137   2.084       .  S
C1138      C1511   1.475       .  S
C1139      C1189   1.470       .  S
C1140      C1217   1.512   1_556  S
C1141      C1427   1.477       .  S
O1142      C1150   1.262   1_554  A
O1142     Co1162   1.909       .  S
O1143      C1151   1.249       .  A
O1143     Co1163   1.964       .  S
O1144      C1152   1.255       .  A
O1144     Co1164   1.990       .  S
O1145      C1153   1.271       .  A
O1145     Co1165   2.008       .  S
O1146     Co1163   1.985       .  S
O1147      C1153   1.270       .  A
O1148      C1151   1.275       .  A
O1148     Co1165   2.055       .  S
O1149      C1150   1.297       .  A
O1149     Co1164   2.135       .  S
C1150      C1270   1.504       .  S
C1151      C1343   1.507       .  S
C1152      C1326   1.459       .  S
C1153      C1651   1.492       .  S
O1154     Co1162   1.986       .  S
O1155      C1168   1.280       .  A
O1156      C1169   1.262       .  A
O1156     Co1164   1.876       .  S
O1157      C1170   1.266       .  A
O1157     Co1165   1.977       .  S
O1158      C1170   1.275       .  A
O1158     Co1163   2.028       .  S
O1159      C1169   1.301       .  A
O1159     Co1162   2.135   1_556  S
O1160      C1167   1.266       .  A
O1160     Co1165   1.987       .  S
O1161      C1168   1.273       .  A
O1161     Co1164   1.979       .  S
Co1163     O1166   2.064       .  S
Co1165     O1166   2.085       .  S
C1167      C1203   1.468       .  S
C1168      C1357   1.493       .  S
C1169      C1662   1.482       .  S
C1170      C1175   1.487       .  S
C1171      H1178   1.082       .  S
C1171      C1172   1.410       .  A
C1171      C1176   1.410       .  A
C1172      C1173   1.424       .  A
C1173      C1174   1.406       .  A
C1173      N1180   1.429       .  S
C1174      H1179   1.080       .  S
C1174      C1175   1.398       .  A
C1175      C1176   1.411       .  A
C1176      N1177   1.429       .  S
N1177      O1181   1.262       .  A
N1177      O1182   1.261       .  A
N1180      O1183   1.262       .  A
C1185      H1192   1.082       .  S
C1186      C1187   1.410       .  A
C1187      C1188   1.401       .  A
C1187      N1194   1.427       .  S
C1188      H1193   1.083       .  S
C1188      C1189   1.405       .  A
C1189      C1190   1.407       .  A
N1191      O1195   1.262       .  A
N1194      O1198   1.262       .  A
C1199      C1200   1.407       .  A
C1199      C1204   1.406   1_565  A
C1200      C1201   1.414       .  A
C1201      C1202   1.390   1_565  A
C1201      N1208   1.427       .  S
C1202      H1207   1.083       .  S
C1202      C1203   1.395       .  A
C1203      C1204   1.410       .  A
N1205      O1209   1.262       .  A
N1208      O1212   1.261       .  A
C1213      H1220   1.085       .  S
C1213      C1214   1.413   1_556  A
C1213      C1218   1.410       .  A
C1214      C1215   1.411       .  A
C1215      C1216   1.411       .  A
C1215      N1222   1.430       .  S
C1216      H1221   1.089       .  S
C1216      C1217   1.412       .  A
C1217      C1218   1.412   1_554  A
C1218      N1219   1.427       .  S
N1219      O1224   1.262       .  A
N1222      O1226   1.262       .  A
C1227      H1234   1.080       .  S
C1227      C1228   1.395       .  A
C1227      C1232   1.392       .  A
C1229      C1230   1.405       .  A
C1229      N1236   1.427       .  S
C1230      H1235   1.080       .  S
C1231      C1232   1.421       .  A
C1232      N1233   1.430       .  S
N1233      O1237   1.262       .  A
N1233      O1238   1.262       .  A
N1236      O1240   1.261       .  A
C1241      H1248   1.082       .  S
C1241      C1246   1.383   1_565  A
C1242      C1243   1.413       .  A
C1243      C1244   1.408   1_565  A
C1243      N1250   1.428       .  S
C1244      H1249   1.081       .  S
C1244      C1245   1.407       .  A
C1246      N1247   1.428       .  S
N1247      O1251   1.259       .  A
N1247      O1252   1.262       .  A
N1250      O1254   1.262       .  A
N1250      O1253   1.262       .  A
C1255      H1262   1.081       .  S
C1255      C1256   1.416       .  A
C1255      C1260   1.420   1_655  A
C1257      C1258   1.396   1_655  A
C1257      N1264   1.423       .  S
C1258      H1263   1.068       .  S
C1259      C1260   1.416       .  A
C1260      N1261   1.428       .  S
N1261      O1265   1.262       .  A
N1261      O1266   1.262       .  A
N1264      O1268   1.260       .  A
C1269      H1276   1.082       .  S
C1269      C1270   1.413   1_554  A
C1269      C1274   1.408       .  A
C1271      C1272   1.398       .  A
C1271      N1278   1.426       .  S
C1272      H1277   1.085       .  S
C1273      C1274   1.411   1_556  A
C1274      N1275   1.431       .  S
N1275      O1279   1.261       .  A
N1275      O1280   1.262       .  A
N1278      O1282   1.259       .  A
N1278      O1281   1.262       .  A
C1283      H1290   1.086       .  S
C1283      C1284   1.392       .  A
C1283      C1288   1.397   1_655  A
C1284      C1285   1.411       .  A
C1285      C1286   1.403   1_655  A
C1285      N1292   1.427       .  S
C1286      H1291   1.086       .  S
C1286      C1287   1.403       .  A
C1287      C1288   1.427       .  A
C1288      N1289   1.429       .  S
N1289      O1293   1.262       .  A
N1292      O1295   1.260       .  A
C1297      H1304   1.083       .  S
C1297      C1298   1.398       .  A
C1297      C1302   1.388       .  A
C1299      C1300   1.410       .  A
C1299      N1306   1.425       .  S
C1300      H1305   1.082       .  S
C1301      C1302   1.415       .  A
C1302      N1303   1.429       .  S
N1303      O1307   1.262       .  A
N1303      O1308   1.261       .  A
N1306      O1310   1.262       .  A
N1306      O1309   1.260       .  A
C1311      H1318   1.084       .  S
C1311      C1316   1.389       .  A
C1312      C1313   1.413   1_556  A
C1313      C1314   1.405       .  A
C1313      N1320   1.430       .  S
C1314      H1319   1.085       .  S
C1314      C1315   1.408   1_554  A
C1316      N1317   1.433       .  S
N1317      O1321   1.261       .  A
N1317      O1322   1.263       .  A
N1320      O1324   1.262   1_554  A
N1320      O1323   1.262       .  A
C1325      H1332   1.084       .  S
C1325      C1326   1.400   1_554  A
C1325      C1330   1.392       .  A
C1326      C1327   1.404       .  A
C1327      C1328   1.393       .  A
C1327      N1334   1.429       .  S
C1328      H1333   1.084       .  S
C1328      C1329   1.409       .  A
C1329      C1330   1.408   1_556  A
C1330      N1331   1.426       .  S
N1331      O1335   1.257       .  A
N1334      O1337   1.262       .  A
C1339      H1346   1.080       .  S
C1339      C1340   1.402       .  A
C1339      C1344   1.405       .  A
C1340      C1341   1.421       .  A
C1341      C1342   1.410       .  A
C1341      N1348   1.428       .  S
C1342      H1347   1.081       .  S
C1342      C1343   1.404       .  A
C1343      C1344   1.423       .  A
C1344      N1345   1.429       .  S
N1345      O1349   1.262       .  A
N1345      O1350   1.262       .  A
N1348      O1352   1.262       .  A
N1348      O1351   1.262       .  A
C1353      H1360   1.084       .  S
C1353      C1354   1.393       .  A
C1353      C1358   1.400       .  A
C1354      C1355   1.402       .  A
C1355      C1356   1.405       .  A
C1355      N1362   1.429       .  S
C1356      H1361   1.079       .  S
C1356      C1357   1.412       .  A
C1357      C1358   1.420       .  A
C1358      N1359   1.425       .  S
N1359      O1363   1.260       .  A
N1359      O1364   1.261       .  A
N1362      O1366   1.261       .  A
N1362      O1365   1.262       .  A
C1367      H1374   1.080       .  S
C1367      C1368   1.402       .  A
C1367      C1372   1.408       .  A
C1368      C1369   1.422       .  A
C1369      C1370   1.402       .  A
C1369      N1376   1.419       .  S
C1370      H1375   1.081       .  S
C1370      C1371   1.394       .  A
C1371      C1372   1.420       .  A
C1372      N1373   1.425       .  S
N1373      O1377   1.261       .  A
N1373      O1378   1.260       .  A
N1376      O1380   1.263       .  A
N1376      O1379   1.262       .  A
C1381      H1388   1.082       .  S
C1381      C1382   1.404       .  A
C1381      C1386   1.396       .  A
C1382      C1383   1.419       .  A
C1383      C1384   1.406       .  A
C1383      N1390   1.432       .  S
C1384      H1389   1.082       .  S
C1384      C1385   1.404       .  A
C1385      C1386   1.405       .  A
C1386      N1387   1.426       .  S
N1387      O1391   1.262       .  A
N1387      O1392   1.261       .  A
N1390      O1394   1.261       .  A
N1390      O1393   1.262       .  A
C1395      H1402   1.077       .  S
C1395      C1396   1.402       .  A
C1395      C1400   1.391       .  A
C1396      C1397   1.409       .  A
C1397      C1398   1.394       .  A
C1397      N1404   1.427       .  S
C1398      H1403   1.081       .  S
C1398      C1399   1.405       .  A
C1399      C1400   1.405       .  A
C1400      N1401   1.426       .  S
N1401      O1405   1.260       .  A
N1401      O1406   1.262       .  A
N1404      O1408   1.262       .  A
N1404      O1407   1.260       .  A
C1409      H1416   1.081       .  S
C1409      C1410   1.407       .  A
C1409      C1414   1.394       .  A
C1410      C1411   1.404       .  A
C1411      C1412   1.387       .  A
C1411      N1418   1.430       .  S
C1412      H1417   1.078       .  S
C1412      C1413   1.409       .  A
C1413      C1414   1.402       .  A
C1414      N1415   1.428       .  S
N1415      O1419   1.262       .  A
N1415      O1420   1.262       .  A
N1418      O1422   1.262       .  A
N1418      O1421   1.262       .  A
C1423      H1430   1.081       .  S
C1423      C1424   1.408       .  A
C1423      C1428   1.402       .  A
C1424      C1425   1.407       .  A
C1425      C1426   1.400       .  A
C1425      N1432   1.428       .  S
C1426      H1431   1.082       .  S
C1426      C1427   1.406       .  A
C1427      C1428   1.407       .  A
C1428      N1429   1.428       .  S
N1429      O1433   1.262       .  A
N1429      O1434   1.261       .  A
N1432      O1436   1.262       .  A
N1432      O1435   1.262       .  A
C1437      H1444   1.081       .  S
C1437      C1438   1.409       .  A
C1437      C1442   1.406       .  A
C1438      C1439   1.404       .  A
C1439      C1440   1.394       .  A
C1439      N1446   1.428       .  S
C1440      H1445   1.082       .  S
C1440      C1441   1.407       .  A
C1441      C1442   1.408       .  A
C1442      N1443   1.429       .  S
N1443      O1447   1.262       .  A
N1443      O1448   1.262       .  A
N1446      O1450   1.262       .  A
N1446      O1449   1.262       .  A
C1451      H1458   1.081       .  S
C1451      C1452   1.400       .  A
C1451      C1456   1.398       .  A
C1452      C1453   1.412       .  A
C1453      C1454   1.404       .  A
C1453      N1460   1.429       .  S
C1454      H1459   1.080       .  S
C1454      C1455   1.409       .  A
C1455      C1456   1.416       .  A
C1456      N1457   1.427       .  S
N1457      O1461   1.262       .  A
N1457      O1462   1.261       .  A
N1460      O1464   1.262       .  A
N1460      O1463   1.262       .  A
C1465      H1472   1.083       .  S
C1465      C1466   1.401       .  A
C1465      C1470   1.408       .  A
C1466      C1467   1.434       .  A
C1467      C1468   1.400       .  A
C1467      N1474   1.433       .  S
C1468      H1473   1.083       .  S
C1468      C1469   1.394       .  A
C1469      C1470   1.414       .  A
C1470      N1471   1.425       .  S
N1471      O1475   1.261   1_655  A
N1471      O1476   1.262       .  A
N1474      O1478   1.263       .  A
N1474      O1477   1.262       .  A
C1479      H1486   1.082       .  S
C1479      C1480   1.405       .  A
C1479      C1484   1.399       .  A
C1480      C1481   1.404       .  A
C1481      C1482   1.394       .  A
C1481      N1488   1.429       .  S
C1482      H1487   1.082       .  S
C1482      C1483   1.405       .  A
C1483      C1484   1.408       .  A
C1484      N1485   1.428       .  S
N1485      O1489   1.262       .  A
N1485      O1490   1.262       .  A
N1488      O1492   1.262       .  A
N1488      O1491   1.262       .  A
C1493      H1500   1.083       .  S
C1493      C1494   1.396       .  A
C1493      C1498   1.392       .  A
C1494      C1495   1.419       .  A
C1495      C1496   1.397       .  A
C1495      N1502   1.432       .  S
C1496      H1501   1.083       .  S
C1496      C1497   1.396       .  A
C1497      C1498   1.408       .  A
C1498      N1499   1.427       .  S
N1499      O1503   1.262       .  A
N1499      O1504   1.261       .  A
N1502      O1506   1.262       .  A
N1502      O1505   1.262       .  A
C1507      H1514   1.082       .  S
C1507      C1508   1.398       .  A
C1507      C1512   1.394       .  A
C1508      C1509   1.413       .  A
C1509      C1510   1.399       .  A
C1509      N1516   1.429       .  S
C1510      H1515   1.081       .  S
C1510      C1511   1.402       .  A
C1511      C1512   1.414       .  A
C1512      N1513   1.430       .  S
N1513      O1517   1.262       .  A
N1513      O1518   1.262       .  A
N1516      O1520   1.262       .  A
N1516      O1519   1.262       .  A
C1521      H1528   1.081       .  S
C1521      C1522   1.406       .  A
C1521      C1526   1.400       .  A
C1522      C1523   1.411       .  A
C1523      C1524   1.404       .  A
C1523      N1530   1.429       .  S
C1524      H1529   1.081       .  S
C1524      C1525   1.412       .  A
C1525      C1526   1.409       .  A
C1526      N1527   1.424       .  S
N1527      O1531   1.261       .  A
N1527      O1532   1.262       .  A
N1530      O1534   1.261       .  A
N1530      O1533   1.262       .  A
C1535      H1542   1.082       .  S
C1535      C1536   1.406       .  A
C1535      C1540   1.402       .  A
C1536      C1537   1.404       .  A
C1537      C1538   1.395       .  A
C1537      N1544   1.429       .  S
C1538      H1543   1.083       .  S
C1538      C1539   1.408       .  A
C1539      C1540   1.411       .  A
C1540      N1541   1.429       .  S
N1541      O1545   1.262       .  A
N1541      O1546   1.262       .  A
N1544      O1548   1.262       .  A
N1544      O1547   1.261       .  A
C1549      H1556   1.082       .  S
C1549      C1550   1.392       .  A
C1549      C1554   1.387       .  A
C1550      C1551   1.407       .  A
C1551      C1552   1.391       .  A
C1551      N1558   1.426       .  S
C1552      H1557   1.082       .  S
C1552      C1553   1.395       .  A
C1553      C1554   1.418       .  A
C1554      N1555   1.431       .  S
N1555      O1559   1.261       .  A
N1555      O1560   1.262       .  A
N1558      O1562   1.262       .  A
N1558      O1561   1.259       .  A
C1563      H1570   1.081       .  S
C1563      C1564   1.402       .  A
C1563      C1568   1.409       .  A
C1564      C1565   1.412       .  A
C1565      C1566   1.398       .  A
C1565      N1572   1.430       .  S
C1566      H1571   1.081       .  S
C1566      C1567   1.403       .  A
C1567      C1568   1.420       .  A
C1568      N1569   1.427       .  S
N1569      O1573   1.262       .  A
N1569      O1574   1.262       .  A
N1572      O1576   1.262       .  A
N1572      O1575   1.262       .  A
C1577      H1584   1.080       .  S
C1577      C1578   1.392       .  A
C1577      C1582   1.394       .  A
C1578      C1579   1.418       .  A
C1579      C1580   1.403       .  A
C1579      N1586   1.426       .  S
C1580      H1585   1.079       .  S
C1580      C1581   1.399       .  A
C1581      C1582   1.423       .  A
C1582      N1583   1.428       .  S
N1583      O1587   1.261       .  A
N1583      O1588   1.261       .  A
N1586      O1590   1.262       .  A
N1586      O1589   1.262       .  A
C1591      H1598   1.086       .  S
C1591      C1592   1.392       .  A
C1591      C1596   1.396       .  A
C1592      C1593   1.406       .  A
C1593      C1594   1.406       .  A
C1593      N1600   1.429       .  S
C1594      H1599   1.086       .  S
C1594      C1595   1.408       .  A
C1595      C1596   1.414       .  A
C1596      N1597   1.423       .  S
N1597      O1601   1.261       .  A
N1597      O1602   1.262       .  A
N1600      O1604   1.262       .  A
N1600      O1603   1.262       .  A
C1605      H1612   1.080       .  S
C1605      C1606   1.410       .  A
C1605      C1610   1.402       .  A
C1606      C1607   1.412       .  A
C1607      C1608   1.400       .  A
C1607      N1614   1.427       .  S
C1608      H1613   1.083       .  S
C1608      C1609   1.406       .  A
C1609      C1610   1.408       .  A
C1610      N1611   1.429       .  S
N1611      O1615   1.262       .  A
N1611      O1616   1.262       .  A
N1614      O1618   1.261       .  A
N1614      O1617   1.262       .  A
C1619      H1626   1.082       .  S
C1619      C1620   1.408       .  A
C1619      C1624   1.398       .  A
C1620      C1621   1.412       .  A
C1621      C1622   1.400       .  A
C1621      N1628   1.425       .  S
C1622      H1627   1.079       .  S
C1622      C1623   1.403       .  A
C1623      C1624   1.413       .  A
C1624      N1625   1.429       .  S
N1625      O1629   1.262       .  A
N1625      O1630   1.262       .  A
N1628      O1632   1.262       .  A
N1628      O1631   1.261       .  A
C1633      H1640   1.080       .  S
C1633      C1634   1.400       .  A
C1633      C1638   1.393       .  A
C1634      C1635   1.414       .  A
C1635      C1636   1.404       .  A
C1635      N1642   1.430       .  S
C1636      H1641   1.074       .  S
C1636      C1637   1.401       .  A
C1637      C1638   1.417       .  A
C1638      N1639   1.430       .  S
N1639      O1643   1.262       .  A
N1639      O1644   1.262       .  A
N1642      O1646   1.262       .  A
N1642      O1645   1.262       .  A
C1647      H1654   1.080       .  S
C1647      C1648   1.401       .  A
C1647      C1652   1.395       .  A
C1648      C1649   1.412       .  A
C1649      C1650   1.406       .  A
C1649      N1656   1.427       .  S
C1650      H1655   1.080       .  S
C1650      C1651   1.406       .  A
C1651      C1652   1.418       .  A
C1652      N1653   1.428       .  S
N1653      O1657   1.262       .  A
N1653      O1658   1.262       .  A
N1656      O1660   1.262       .  A
N1656      O1659   1.262       .  A
C1661      H1668   1.079       .  S
C1661      C1662   1.400       .  A
C1661      C1666   1.398       .  A
C1662      C1663   1.411       .  A
C1663      C1664   1.413       .  A
C1663      N1670   1.429       .  S
C1664      H1669   1.081       .  S
C1664      C1665   1.411       .  A
C1665      C1666   1.414       .  A
C1666      N1667   1.429       .  S
N1667      O1671   1.262       .  A
N1667      O1672   1.262       .  A
N1670      O1674   1.261       .  A
N1670      O1673   1.261       .  A
