geometry optimzed in LAMMPS
_audit_creation_date              2020-11-30 
_audit_creation_method            'lammps2cif' 
_symmetry_space_group_name_H-M    'P1' 
_symmetry_Int_Tables_number       1 
_symmetry_cell_setting            triclinic 
loop_ 
_symmetry_equiv_pos_as_xyz 
  x,y,z 
_cell_length_a                    27.56539789 
_cell_length_b                    27.558844020574842 
_cell_length_c                    26.209192917849098 
_cell_angle_alpha                 89.99115355433821 
_cell_angle_beta                  90.00372681064134 
_cell_angle_gamma                 89.99962993191059 
loop_ 
_atom_site_label 
_atom_site_type_symbol 
_atom_site_fract_x 
_atom_site_fract_y 
_atom_site_fract_z 
_atom_site_charge 
C1          C  0.51224805  0.30520910  0.00423114     0.06000
C2          C  0.53661940  0.30793029  0.45739772    -0.10100
C3          C  0.58732965  0.30958966  0.45640500     0.03500
C4          C  0.61350618  0.30853153  0.50218852    -0.08600
C5          C  0.58906779  0.30593216  0.04894057     0.06000
C6          C  0.53840657  0.30423044  0.04999546    -0.08100
H7          H  0.51623815  0.30941467  0.42203460     0.11600
H8          H  0.65280956  0.31069993  0.50148107     0.09200
H9          H  0.51942025  0.30297841  0.08622010     0.09000
O10         O  0.66549610  0.35047502  0.29375944    -0.78900
C11         C  0.86507283  0.32904368  0.24799145     1.00500
O12         O  0.84396709  0.31392326  0.28756457    -0.68000
O13         O  0.79769456  0.38386491  0.33411390    -0.71600
Al14       Al  0.77888348  0.32154813  0.31151534     1.49000
C15         C  0.77011075  0.42004387  0.33784284     0.95700
O16         O  0.74435912  0.43330691  0.21283677    -0.77800
O17         O  0.71592663  0.29960549  0.17210271    -0.71400
Al18       Al  0.70793515  0.38892930  0.25328784     1.90100
O19         O  0.77128569  0.38062507  0.15685939    -0.68400
O20         O  0.78890374  0.25647884  0.21695040    -0.70300
O21         O  0.84166361  0.34073909  0.20870341    -0.76000
O22         O  0.76268195  0.25644378  0.29598198    -0.74200
O23         O  0.75468831  0.34400100  0.25290179    -1.10300
O24         O  0.71960629  0.32446558  0.34877618    -0.69500
C25         C  0.67616273  0.33189320  0.33619289     1.01200
C26         C  0.76277284  0.42372059  0.17003417     0.97600
Al27       Al  0.77751419  0.32131367  0.19379795     1.55600
O28         O  0.73157308  0.42315690  0.31203757    -0.74100
C29         C  0.77553892  0.23407075  0.25641379     1.01800
C30         C  0.67868507  0.32578480  0.16881913     0.96700
O31         O  0.67431995  0.36419166  0.19466785    -0.79400
C32         C  0.79941558  0.58690282  0.00193350     0.06000
C33         C  0.79767897  0.56045254  0.45634255    -0.10100
C34         C  0.79044553  0.51025318  0.45769860     0.03500
C35         C  0.78499646  0.48654281  0.00460666    -0.08600
C36         C  0.78663914  0.51291593  0.05025934     0.06000
C37         C  0.79388256  0.56319309  0.04894841    -0.08100
H38         H  0.80133867  0.57892567  0.42000111     0.11600
H39         H  0.77891313  0.44764838  0.00555281     0.09200
H40         H  0.79472388  0.58378739  0.08419040     0.09000
C41         C  0.78515367  0.08691557  0.25324408     0.06000
C42         C  0.79046864  0.06315967  0.20623117    -0.10100
C43         C  0.79773557  0.01288256  0.20494905     0.03500
C44         C  0.79962372  0.98655651  0.25062882    -0.08600
C45         C  0.79440250  0.01030789  0.29753398     0.06000
C46         C  0.78713626  0.06050550  0.29886196    -0.08100
H47         H  0.78944567  0.08371908  0.17096550     0.11600
H48         H  0.80572581  0.94766429  0.24970280     0.09200
H49         H  0.78364161  0.07900797  0.33519793     0.09000
O50         O  0.84005343  0.93320481  0.04251567    -0.78900
C51         C  0.80897333  0.73403962  0.99867151     1.00500
O52         O  0.79526857  0.75645376  0.03799717    -0.68000
O53         O  0.86797194  0.79947898  0.08345990    -0.71600
Al54       Al  0.80656646  0.82126969  0.06124646     1.49000
C55         C  0.90526361  0.82556805  0.08695060     0.95700
O56         O  0.91932563  0.85037268  0.46204043    -0.77800
O57         O  0.78738298  0.88380839  0.42081731    -0.71400
Al58       Al  0.87664807  0.88881222  0.00226849     1.90100
O59         O  0.86553217  0.82442214  0.40667779    -0.70400
O60         O  0.74079412  0.81385455  0.46698589    -0.70300
O61         O  0.82215809  0.75640164  0.45920896    -0.76000
O62         O  0.74254572  0.84080144  0.04580008    -0.74200
O63         O  0.82985101  0.84393174  0.00231910    -1.10300
O64         O  0.81261758  0.88054650  0.09824855    -0.69500
C65         C  0.82135313  0.92362819  0.08518313     1.01200
C66         C  0.90890209  0.83182970  0.41952932     0.97600
Al67       Al  0.80604171  0.82149305  0.44353184     1.55600
O68         O  0.90987525  0.86395066  0.06108961    -0.74100
C69         C  0.71941013  0.82908655  0.00633986     1.01800
C70         C  0.81494923  0.92002396  0.41733668     0.96700
O71         O  0.85334437  0.92312495  0.44338832    -0.79400
C72         C  0.07224631  0.80492176  0.25082505     0.06000
C73         C  0.04572961  0.80386178  0.20529092    -0.10100
C74         C  0.99507794  0.80559502  0.20676611     0.03500
C75         C  0.97100345  0.80829037  0.25371908    -0.08600
C76         C  0.99753094  0.80941356  0.29928263     0.06000
C77         C  0.04823597  0.80773284  0.29786318    -0.08100
H78         H  0.06443604  0.80254978  0.16890813     0.11600
H79         H  0.93170828  0.81049033  0.25475223     0.09200
H80         H  0.06888943  0.80928291  0.33304693     0.09000
C81         C  0.29945580  0.05139228  0.25209956     0.06000
C82         C  0.29770702  0.07783609  0.29769351    -0.10100
C83         C  0.29047278  0.12803523  0.29634149     0.03500
C84         C  0.28503274  0.15175198  0.24943529    -0.08600
C85         C  0.28668605  0.12538521  0.20377937     0.06000
C86         C  0.29393176  0.07510800  0.20508584    -0.08100
H87         H  0.30135933  0.05935844  0.33403369     0.11600
H88         H  0.27894825  0.19064627  0.24849279     0.09200
H89         H  0.29478159  0.05451820  0.16984113     0.09000
O90         O  0.16549257  0.28778166  0.46026476    -0.78900
C91         C  0.36507294  0.30927515  0.00601773     1.00500
O92         O  0.34395474  0.32438648  0.46644551    -0.68000
O93         O  0.29769142  0.25443025  0.41990895    -0.71600
Al94       Al  0.27886876  0.31674381  0.44250263     1.49000
C95         C  0.27012028  0.21824086  0.41619029     0.95700
O96         O  0.24439189  0.20498533  0.04120013    -0.77800
O97         O  0.21592868  0.33868076  0.08191941    -0.71400
Al98       Al  0.20794994  0.24934728  0.00074261     1.90100
O99         O  0.27131776  0.25768027  0.09716701    -0.70400
O100        O  0.28888521  0.38182571  0.03706080    -0.70300
O101        O  0.34167497  0.29758259  0.04531138    -0.76000
O102        O  0.26265466  0.38184644  0.45802902    -0.74200
O103        O  0.25469015  0.29428990  0.00112062    -1.10300
O104        O  0.21958700  0.31380829  0.40524774    -0.69500
C105        C  0.17614812  0.30636532  0.41783070     1.01200
C106        C  0.26281134  0.21458121  0.08399994     0.97600
Al107      Al  0.27752042  0.31698976  0.06022069     1.55600
O108        O  0.23158950  0.21511816  0.44199959    -0.74100
C109        C  0.27551218  0.40422665  0.99759418     1.01800
C110        C  0.17869372  0.31249263  0.08520395     0.96700
O111        O  0.17433557  0.27408329  0.05935795    -0.79400
C112        C  0.01224579  0.33308084  0.24976287     0.06000
C113        C  0.03661257  0.33034192  0.29660013    -0.10100
C114        C  0.08732110  0.32865937  0.29760312     0.03500
C115        C  0.11350157  0.32971092  0.25182547    -0.08600
C116        C  0.08906767  0.33232921  0.20506848     0.06000
C117        C  0.03840699  0.33405427  0.20400351    -0.08100
H118        H  0.01622852  0.32886341  0.33195894     0.11600
H119        H  0.15280401  0.32752660  0.25254140     0.09200
H120        H  0.01942299  0.33532152  0.16777517     0.09000
C121        C  0.28510843  0.55138352  0.00074387     0.06000
C122        C  0.29041319  0.57514663  0.04775463    -0.10100
C123        C  0.29767240  0.62542489  0.04903129     0.03500
C124        C  0.29956315  0.65174498  0.00334831    -0.08600
C125        C  0.29435355  0.62798600  0.45644539     0.06000
C126        C  0.28709483  0.57778732  0.45512264    -0.08100
H127        H  0.28938918  0.55459178  0.08302310     0.11600
H128        H  0.30566071  0.69063802  0.00427021     0.09200
H129        H  0.28360946  0.55927944  0.41878857     0.09000
O130        O  0.34001054  0.70508673  0.21146570    -0.78900
C131        C  0.30900852  0.90425618  0.25534408     1.00500
O132        O  0.29529085  0.88185237  0.21601516    -0.68000
O133        O  0.36797160  0.83880589  0.17053977    -0.71600
Al134      Al  0.30656038  0.81703625  0.19275435     1.49000
C135        C  0.40525434  0.81270385  0.16704653     0.95700
O136        O  0.41932504  0.78787429  0.29195327    -0.77800
O137        O  0.28737431  0.75448577  0.33317037    -0.71400
Al138      Al  0.37662698  0.74945852  0.25171916     1.90100
O139        O  0.36554785  0.81383594  0.34732040    -0.70400
O140        O  0.24080662  0.82446665  0.28701979    -0.70300
O141        O  0.32219447  0.88188417  0.29480213    -0.76000
O142        O  0.24253372  0.79752671  0.20820291    -0.74200
O143        O  0.32984670  0.79435736  0.25167682    -1.10300
O144        O  0.31258299  0.75776254  0.15574262    -0.69500
C145        C  0.32130652  0.71467606  0.16880081     1.01200
C146        C  0.40891309  0.80641257  0.33446833     0.97600
Al147      Al  0.30605472  0.81679674  0.31046836     1.55600
O148        O  0.40985525  0.77431645  0.19290236    -0.74100
C149        C  0.21940961  0.80924339  0.24766741     1.01800
C150        C  0.31492683  0.71825870  0.33664496     0.96700
O151        O  0.35331794  0.71514599  0.31059346    -0.79400
C152        C  0.57224785  0.83336902  0.00319914     0.06000
C153        C  0.54572932  0.83442401  0.04872899    -0.10100
C154        C  0.49507853  0.83265589  0.04724552     0.03500
C155        C  0.47100797  0.82993027  0.00028878    -0.08600
C156        C  0.49753823  0.82881418  0.45473048     0.06000
C157        C  0.54824119  0.83052913  0.45615830    -0.08100
H158        H  0.56443400  0.83576039  0.08511452     0.11600
H159        H  0.43171438  0.82770679  0.99924869     0.09200
H160        H  0.56889679  0.82898578  0.42097834     0.09000
C161        C  0.44625392  0.81701539  0.37077694    -0.10400
C162        C  0.47225157  0.82358408  0.40706044    -0.11900
C163        C  0.46757057  0.83036708  0.09369635    -0.10400
C164        C  0.44118379  0.82458385  0.12974562    -0.11900
C165        C  0.29840388  0.65530591  0.40992141    -0.10400
C166        C  0.30438988  0.68181058  0.37394554    -0.11900
C167        C  0.31150502  0.67678481  0.13273666    -0.10400
C168        C  0.30446207  0.65053656  0.09668455    -0.11900
C169        C  0.27638498  0.45610874  0.99772016    -0.10400
C170        C  0.27936023  0.49964128  0.99908895    -0.11900
C171        C  0.14258531  0.32427245  0.12233049    -0.10400
C172        C  0.11624700  0.33002474  0.15841555    -0.11900
C173        C  0.13898815  0.31699245  0.38133011    -0.10400
C174        C  0.11294006  0.32352326  0.34508167    -0.11900
C175        C  0.27970972  0.15045169  0.15612487    -0.10400
C176        C  0.27258815  0.17667839  0.12006625    -0.11900
C177        C  0.28076201  0.18187096  0.37885378    -0.10400
C178        C  0.28665479  0.15538693  0.34285464    -0.11900
C179        C  0.30519274  0.99965777  0.25379413    -0.10400
C180        C  0.30815582  0.95612991  0.25519250    -0.11900
C181        C  0.12418705  0.80492740  0.24911100    -0.10400
C182        C  0.16773086  0.80620134  0.24785771    -0.11900
C183        C  0.66773223  0.83213302  0.00616062    -0.10400
C184        C  0.62418802  0.83339451  0.00491724    -0.11900
C185        C  0.94119024  0.81367965  0.12425583    -0.10400
C186        C  0.96757261  0.80788866  0.16031059    -0.11900
C187        C  0.94623686  0.82120593  0.38322443    -0.10400
C188        C  0.97223783  0.81463203  0.34694757    -0.11900
C189        C  0.80452896  0.98777659  0.15729363    -0.10400
C190        C  0.81156728  0.96152747  0.12124189    -0.11900
C191        C  0.79844476  0.98298097  0.34405536    -0.10400
C192        C  0.80442214  0.95647261  0.38003111    -0.11900
C193        C  0.80514858  0.63863784  0.00023456    -0.10400
C194        C  0.80811135  0.68216573  0.99883249    -0.11900
C195        C  0.96030103  0.33315111  0.24851330    -0.10400
C196        C  0.91674969  0.33197419  0.24770162    -0.11900
C197        C  0.77939876  0.13865689  0.25490522    -0.10400
C198        C  0.77641900  0.18218893  0.25628008    -0.11900
C199        C  0.77253792  0.46162950  0.13397351    -0.10400
C200        C  0.77965743  0.48785548  0.09791516    -0.11900
C201        C  0.78663497  0.48289586  0.41118710    -0.10400
C202        C  0.78074684  0.45641148  0.37518606    -0.11900
C203        C  0.64257810  0.31399839  0.13168915    -0.10400
C204        C  0.61624347  0.30823976  0.09559899    -0.11900
C205        C  0.63900836  0.32125271  0.37269143    -0.10400
C206        C  0.61295593  0.31471888  0.40893274    -0.11900
C207        C  0.41675094  0.30634613  0.00629631    -0.10400
C208        C  0.46030235  0.30516018  0.00547514    -0.11900
C209        C  0.51224805  0.30520896  0.50423098     0.06000
C210        C  0.53661937  0.30793043  0.95739788    -0.10100
C211        C  0.58732964  0.30958975  0.95640510     0.03500
C212        C  0.61350617  0.30853159  0.00218862    -0.08600
C213        C  0.58906776  0.30593214  0.54894049     0.06000
C214        C  0.53840656  0.30423037  0.54999528    -0.08100
H215        H  0.51623808  0.30941484  0.92203473     0.11600
H216        H  0.65280957  0.31070001  0.00148113     0.09200
H217        H  0.51942015  0.30297840  0.58622006     0.09000
O218        O  0.66549613  0.35047493  0.79375948    -0.78900
C219        C  0.86507282  0.32904372  0.74799145     1.00500
O220        O  0.84396709  0.31392321  0.78756454    -0.68000
O221        O  0.79769455  0.38386480  0.83411402    -0.71600
Al222      Al  0.77888349  0.32154805  0.81151533     1.49000
C223        C  0.77011073  0.42004376  0.83784291     0.95700
O224        O  0.74435906  0.43330689  0.71283660    -0.77800
O225        O  0.71592670  0.29960557  0.67210253    -0.71400
Al226      Al  0.70793515  0.38892926  0.75328778     1.90100
O227        O  0.77128578  0.38062506  0.65685930    -0.68400
O228        O  0.78890367  0.25647880  0.71695035    -0.70300
O229        O  0.84166359  0.34073913  0.70870344    -0.76000
O230        O  0.76268198  0.25644369  0.79598194    -0.74200
O231        O  0.75468832  0.34400096  0.75290174    -1.10300
O232        O  0.71960630  0.32446548  0.84877621    -0.69500
C233        C  0.67616275  0.33189312  0.83619294     1.01200
C234        C  0.76277282  0.42372056  0.67003402     0.97600
Al235      Al  0.77751421  0.32131368  0.69379788     1.55600
O236        O  0.73157315  0.42315684  0.81203750    -0.74100
C237        C  0.77553892  0.23407069  0.75641375     1.01800
C238        C  0.67868511  0.32578484  0.66881900     0.96700
O239        O  0.67431995  0.36419166  0.69466778    -0.79400
C240        C  0.79941549  0.58690276  0.50193346     0.06000
C241        C  0.79767901  0.56045258  0.95634260    -0.10100
C242        C  0.79044562  0.51025318  0.95769874     0.03500
C243        C  0.78499633  0.48654270  0.50460647    -0.08600
C244        C  0.78663910  0.51291581  0.55025917     0.06000
C245        C  0.79388245  0.56319294  0.54894831    -0.08100
H246        H  0.80133862  0.57892560  0.92000123     0.11600
H247        H  0.77891298  0.44764839  0.50555258     0.09200
H248        H  0.79472371  0.58378724  0.58419039     0.09000
C249        C  0.78515373  0.08691550  0.75324411     0.06000
C250        C  0.79046861  0.06315965  0.70623120    -0.10100
C251        C  0.79773553  0.01288253  0.70494902     0.03500
C252        C  0.79962376  0.98655651  0.75062879    -0.08600
C253        C  0.79440258  0.01030782  0.79753396     0.06000
C254        C  0.78713634  0.06050544  0.79886200    -0.08100
H255        H  0.78944563  0.08371909  0.67096552     0.11600
H256        H  0.80572594  0.94766415  0.74970268     0.09200
H257        H  0.78364172  0.07900782  0.83519787     0.09000
O258        O  0.84005356  0.93320483  0.54251563    -0.78900
C259        C  0.80897329  0.73403959  0.49867160     1.00500
O260        O  0.79526848  0.75645380  0.53799720    -0.68000
O261        O  0.86797191  0.79947906  0.58345992    -0.71600
Al262      Al  0.80656644  0.82126978  0.56124643     1.49000
C263        C  0.90526366  0.82556803  0.58695050     0.95700
O264        O  0.91932564  0.85037269  0.96204053    -0.77800
O265        O  0.78738289  0.88380843  0.92081736    -0.71400
Al266      Al  0.87664812  0.88881222  0.50226841     1.90100
O267        O  0.86553219  0.82442217  0.90667786    -0.70400
O268        O  0.74079418  0.81385452  0.96698592    -0.70300
O269        O  0.82215808  0.75640171  0.95920890    -0.76000
O270        O  0.74254565  0.84080158  0.54580002    -0.74200
O271        O  0.82985102  0.84393176  0.50231906    -1.10300
O272        O  0.81261761  0.88054658  0.59824850    -0.69500
C273        C  0.82135322  0.92362824  0.58518307     1.01200
C274        C  0.90890211  0.83182970  0.91952941     0.97600
Al275      Al  0.80604171  0.82149308  0.94353186     1.55600
O276        O  0.90987536  0.86395059  0.56108946    -0.74100
C277        C  0.71941005  0.82908664  0.50633982     1.01800
C278        C  0.81494919  0.92002398  0.91733673     0.96700
O279        O  0.85334434  0.92312493  0.94338838    -0.79400
C280        C  0.07224632  0.80492177  0.75082498     0.06000
C281        C  0.04572960  0.80386179  0.70529084    -0.10100
C282        C  0.99507796  0.80559503  0.70676604     0.03500
C283        C  0.97100340  0.80829034  0.75371902    -0.08600
C284        C  0.99753093  0.80941353  0.79928260     0.06000
C285        C  0.04823592  0.80773281  0.79786307    -0.08100
H286        H  0.06443605  0.80254970  0.66890806     0.11600
H287        H  0.93170839  0.81049024  0.75475215     0.09200
H288        H  0.06888950  0.80928284  0.83304698     0.09000
C289        C  0.29945587  0.05139230  0.75209961     0.06000
C290        C  0.29770712  0.07783618  0.79769347    -0.10100
C291        C  0.29047288  0.12803531  0.79634146     0.03500
C292        C  0.28503277  0.15175202  0.74943522    -0.08600
C293        C  0.28668601  0.12538520  0.70377935     0.06000
C294        C  0.29393177  0.07510798  0.70508581    -0.08100
H295        H  0.30135946  0.05935851  0.83403380     0.11600
H296        H  0.27894832  0.19064631  0.74849274     0.09200
H297        H  0.29478163  0.05451823  0.66984126     0.09000
O298        O  0.16549266  0.28778184  0.96026476    -0.78900
C299        C  0.36507295  0.30927511  0.50601770     1.00500
O300        O  0.34395475  0.32438651  0.96644552    -0.68000
O301        O  0.29769138  0.25443031  0.91990881    -0.71600
Al302      Al  0.27886877  0.31674388  0.94250261     1.49000
C303        C  0.27012027  0.21824087  0.91619029     0.95700
O304        O  0.24439194  0.20498531  0.54120010    -0.77800
O305        O  0.21592852  0.33868078  0.58191924    -0.71400
Al306      Al  0.20794992  0.24934718  0.50074259     1.90100
O307        O  0.27131768  0.25768031  0.59716698    -0.70400
O308        O  0.28888516  0.38182569  0.53706077    -0.70300
O309        O  0.34167497  0.29758259  0.54531140    -0.76000
O310        O  0.26265460  0.38184648  0.95802911    -0.74200
O311        O  0.25469011  0.29428987  0.50112060    -1.10300
O312        O  0.21958706  0.31380838  0.90524767    -0.69500
C313        C  0.17614819  0.30636544  0.91783066     1.01200
C314        C  0.26281133  0.21458123  0.58399992     0.97600
Al315      Al  0.27752034  0.31698979  0.56022064     1.55600
O316        O  0.23158954  0.21511819  0.94199967    -0.74100
C317        C  0.27551218  0.40422660  0.49759412     1.01800
C318        C  0.17869360  0.31249258  0.58520385     0.96700
O319        O  0.17433554  0.27408318  0.55935794    -0.79400
C320        C  0.01224577  0.33308093  0.74976287     0.06000
C321        C  0.03661255  0.33034189  0.79660009    -0.10100
C322        C  0.08732109  0.32865926  0.79760308     0.03500
C323        C  0.11350150  0.32971081  0.75182539    -0.08600
C324        C  0.08906760  0.33232918  0.70506844     0.06000
C325        C  0.03840691  0.33405442  0.70400346    -0.08100
H326        H  0.01622848  0.32886334  0.83195897     0.11600
H327        H  0.15280405  0.32752646  0.75254130     0.09200
H328        H  0.01942297  0.33532179  0.66777527     0.09000
C329        C  0.28510852  0.55138346  0.50074394     0.06000
C330        C  0.29041318  0.57514658  0.54775470    -0.10100
C331        C  0.29767229  0.62542488  0.54903131     0.03500
C332        C  0.29956317  0.65174490  0.50334831    -0.08600
C333        C  0.29435340  0.62798607  0.95644537     0.06000
C334        C  0.28709464  0.57778744  0.95512264    -0.08100
H335        H  0.28938917  0.55459182  0.58302313     0.11600
H336        H  0.30566073  0.69063801  0.50427021     0.09200
H337        H  0.28360923  0.55927949  0.91878841     0.09000
O338        O  0.34001067  0.70508668  0.71146569    -0.78900
C339        C  0.30900854  0.90425616  0.75534421     1.00500
O340        O  0.29529094  0.88185239  0.71601523    -0.68000
O341        O  0.36797156  0.83880585  0.67053980    -0.71600
Al342      Al  0.30656039  0.81703624  0.69275441     1.49000
C343        C  0.40525432  0.81270385  0.66704654     0.95700
O344        O  0.41932505  0.78787444  0.79195328    -0.77800
O345        O  0.28737435  0.75448568  0.83317038    -0.71400
Al346      Al  0.37662704  0.74945856  0.75171920     1.90100
O347        O  0.36554784  0.81383589  0.84732049    -0.70400
O348        O  0.24080661  0.82446650  0.78701993    -0.70300
O349        O  0.32219438  0.88188410  0.79480228    -0.76000
O350        O  0.24253371  0.79752679  0.70820296    -0.74200
O351        O  0.32984671  0.79435734  0.75167688    -1.10300
O352        O  0.31258299  0.75776254  0.65574268    -0.69500
C353        C  0.32130661  0.71467605  0.66880080     1.01200
C354        C  0.40891309  0.80641265  0.83446837     0.97600
Al355      Al  0.30605470  0.81679666  0.81046843     1.55600
O356        O  0.40985530  0.77431648  0.69290241    -0.74100
C357        C  0.21940961  0.80924333  0.74766751     1.01800
C358        C  0.31492688  0.71825862  0.83664494     0.96700
O359        O  0.35331803  0.71514599  0.81059350    -0.79400
C360        C  0.57224776  0.83336895  0.50319919     0.06000
C361        C  0.54572922  0.83442390  0.54872904    -0.10100
C362        C  0.49507842  0.83265586  0.54724553     0.03500
C363        C  0.47100791  0.82993019  0.50028878    -0.08600
C364        C  0.49753829  0.82881419  0.95473048     0.06000
C365        C  0.54824125  0.83052908  0.95615825    -0.08100
H366        H  0.56443386  0.83576025  0.58511456     0.11600
H367        H  0.43171425  0.82770665  0.49924863     0.09200
H368        H  0.56889679  0.82898563  0.92097834     0.09000
C369        C  0.44625392  0.81701547  0.87077699    -0.10400
C370        C  0.47225159  0.82358413  0.90706047    -0.11900
C371        C  0.46757045  0.83036714  0.59369633    -0.10400
C372        C  0.44118369  0.82458388  0.62974559    -0.11900
C373        C  0.29840381  0.65530592  0.90992138    -0.10400
C374        C  0.30438989  0.68181047  0.87394544    -0.11900
C375        C  0.31150505  0.67678484  0.63273662    -0.10400
C376        C  0.30446194  0.65053659  0.59668453    -0.11900
C377        C  0.27638491  0.45610869  0.49772015    -0.10400
C378        C  0.27936020  0.49964122  0.49908904    -0.11900
C379        C  0.14258520  0.32427235  0.62233042    -0.10400
C380        C  0.11624689  0.33002464  0.65841549    -0.11900
C381        C  0.13898820  0.31699244  0.88133004    -0.10400
C382        C  0.11294009  0.32352314  0.84508158    -0.11900
C383        C  0.27970970  0.15045170  0.65612485    -0.10400
C384        C  0.27258813  0.17667845  0.62006627    -0.11900
C385        C  0.28076196  0.18187092  0.87885381    -0.10400
C386        C  0.28665481  0.15538698  0.84285460    -0.11900
C387        C  0.30519283  0.99965777  0.75379425    -0.10400
C388        C  0.30815590  0.95612991  0.75519267    -0.11900
C389        C  0.12418704  0.80492735  0.74911097    -0.10400
C390        C  0.16773087  0.80620125  0.74785780    -0.11900
C391        C  0.66773213  0.83213306  0.50616064    -0.10400
C392        C  0.62418792  0.83339448  0.50491731    -0.11900
C393        C  0.94119034  0.81367957  0.62425568    -0.10400
C394        C  0.96757266  0.80788860  0.66031047    -0.11900
C395        C  0.94623688  0.82120596  0.88322447    -0.10400
C396        C  0.97223782  0.81463206  0.84694756    -0.11900
C397        C  0.80452897  0.98777662  0.65729356    -0.10400
C398        C  0.81156734  0.96152753  0.62124180    -0.11900
C399        C  0.79844488  0.98298093  0.84405532    -0.10400
C400        C  0.80442221  0.95647262  0.88003110    -0.11900
C401        C  0.80514846  0.63863777  0.50023464    -0.10400
C402        C  0.80811127  0.68216568  0.49883266    -0.11900
C403        C  0.96030099  0.33315119  0.74851327    -0.10400
C404        C  0.91674966  0.33197428  0.74770159    -0.11900
C405        C  0.77939886  0.13865684  0.75490528    -0.10400
C406        C  0.77641908  0.18218887  0.75628008    -0.11900
C407        C  0.77253791  0.46162943  0.63397335    -0.10400
C408        C  0.77965747  0.48785534  0.59791497    -0.11900
C409        C  0.78663494  0.48289578  0.91118725    -0.10400
C410        C  0.78074674  0.45641137  0.87518622    -0.11900
C411        C  0.64257809  0.31399839  0.63168908    -0.10400
C412        C  0.61624342  0.30823978  0.59559894    -0.11900
C413        C  0.63900838  0.32125269  0.87269153    -0.10400
C414        C  0.61295592  0.31471894  0.90893286    -0.11900
C415        C  0.41675095  0.30634601  0.50629619    -0.10400
C416        C  0.46030236  0.30516004  0.50547493    -0.11900
loop_ 
_geom_bond_atom_site_label_1 
_geom_bond_atom_site_label_2 
_geom_bond_distance 
_geom_bond_site_symmetry_2 
_ccdc_geom_bond_type 
C1            C6   1.400       .  A
C1          C210   1.401   1_554  A
C1          C208   1.432       .  S
C2            C3   1.399       .  A
C2          C209   1.401       .  A
C2            H7   1.085       .  S
C3            C4   1.400       .  A
C3          C206   1.438       .  S
C4          C213   1.400       .  A
C4            H8   1.085       .  S
C5            C6   1.398       .  A
C5          C212   1.400       .  A
C5          C204   1.435       .  S
C6            H9   1.085       .  S
O10          C25   1.259       .  A
O10         Al18   1.902       .  S
C11         C196   1.427       .  S
C11          O21   1.257       .  A
C11          O12   1.260       .  A
O12         Al14   1.912       .  S
O13          C15   1.258       .  A
O13         Al14   1.889       .  S
Al14         O22   1.893       .  S
Al14         O24   1.905       .  S
Al14         O23   1.785       .  S
C15         C202   1.431       .  S
C15          O28   1.262       .  A
O16          C26   1.259       .  A
O16         Al18   1.905       .  S
O17          C30   1.258       .  A
O17         Al27   1.888       .  S
Al18         O31   1.919       .  S
Al18         O28   1.920       .  S
Al18         O23   1.787       .  S
O19          C26   1.259       .  A
O19         Al27   1.907       .  S
O20          C29   1.260       .  A
O20         Al27   1.913       .  S
O21         Al27   1.888       .  S
O22          C29   1.258       .  A
O23         Al27   1.785       .  S
O24          C25   1.259       .  A
C25         C205   1.432       .  S
C26         C199   1.434       .  S
C29         C198   1.430       .  S
C30         C203   1.429       .  S
C30          O31   1.263       .  A
C32          C37   1.403       .  A
C32         C241   1.401   1_554  A
C32         C193   1.435       .  S
C33          C34   1.398       .  A
C33         C240   1.401       .  A
C33          H38   1.085       .  S
C34         C243   1.400       .  A
C34         C201   1.437       .  S
C35          C36   1.401       .  A
C35         C242   1.400   1_554  A
C35          H39   1.085       .  S
C36          C37   1.400       .  A
C36         C200   1.440       .  S
C37          H40   1.084       .  S
C41          C42   1.403       .  A
C41          C46   1.401       .  A
C41         C197   1.435       .  S
C42          C43   1.400       .  A
C42          H47   1.084       .  S
C43          C44   1.401   1_545  A
C43         C189   1.440   1_545  S
C44          C45   1.400   1_565  A
C44          H48   1.085       .  S
C45          C46   1.398       .  A
C45         C191   1.437   1_545  S
C46          H49   1.085       .  S
O50          C65   1.259       .  A
O50         Al58   1.905       .  S
C51         C194   1.430       .  S
C51          O52   1.260   1_556  A
C51         O269   1.258       .  A
O52         Al54   1.913       .  S
O53          C55   1.258       .  A
O53         Al54   1.888       .  S
Al54         O62   1.889       .  S
Al54         O64   1.907       .  S
Al54         O63   1.785       .  S
C55         C185   1.430       .  S
C55          O68   1.263       .  A
O56          C66   1.259       .  A
O56        Al266   1.902       .  S
O57          C70   1.258       .  A
O57         Al67   1.889       .  S
Al58         O68   1.920       .  S
Al58        O264   1.902   1_554  S
Al58        O279   1.920   1_554  S
Al58         O63   1.787       .  S
O59          C66   1.259       .  A
O59         Al67   1.905       .  S
O60         C277   1.260       .  A
O60         Al67   1.912       .  S
O61         C259   1.258       .  A
O61         Al67   1.893       .  S
O62          C69   1.257       .  A
O63        Al275   1.785   1_554  S
O64          C65   1.259       .  A
C65         C190   1.434       .  S
C66         C187   1.432       .  S
Al67        O271   1.785       .  S
C69         C183   1.427       .  S
C69         O268   1.260   1_554  A
C70         C192   1.431       .  S
C70          O71   1.262       .  A
O71        Al266   1.920       .  S
C72          C73   1.400       .  A
C72          C77   1.401       .  A
C72         C181   1.432       .  S
C73          C74   1.398   1_455  A
C73          H78   1.085       .  S
C74          C75   1.400       .  A
C74         C186   1.436       .  S
C75          C76   1.401       .  A
C75          H79   1.085       .  S
C76          C77   1.399   1_655  A
C76         C188   1.438       .  S
C77          H80   1.085       .  S
C81          C82   1.401       .  A
C81          C86   1.403       .  A
C81         C179   1.435   1_545  S
C82          C83   1.398       .  A
C82          H87   1.085       .  S
C83          C84   1.400       .  A
C83         C178   1.437       .  S
C84          C85   1.401       .  A
C84          H88   1.085       .  S
C85          C86   1.400       .  A
C85         C175   1.440       .  S
C86          H89   1.084       .  S
O90         C105   1.259       .  A
O90        Al306   1.902       .  S
C91         C207   1.427       .  S
C91         O101   1.257       .  A
C91         O300   1.260   1_554  A
O92         C299   1.260       .  A
O92         Al94   1.912       .  S
O93          C95   1.258       .  A
O93         Al94   1.889       .  S
Al94        O102   1.893       .  S
Al94        O104   1.905       .  S
Al94        O311   1.785       .  S
C95         C177   1.431       .  S
C95         O108   1.262       .  A
O96         C106   1.259       .  A
O96         Al98   1.905       .  S
O97         C110   1.258       .  A
O97        Al107   1.888       .  S
Al98        O111   1.919       .  S
Al98        O298   1.902   1_554  S
Al98        O316   1.920   1_554  S
Al98        O103   1.787       .  S
O99         C106   1.259       .  A
O99        Al107   1.907       .  S
O100        C109   1.260   1_554  A
O100       Al107   1.913       .  S
O101       Al107   1.888       .  S
O102        C317   1.258       .  A
O103       Al107   1.785       .  S
O103       Al302   1.785   1_554  S
O104        C105   1.259       .  A
C105        C173   1.432       .  S
C106        C176   1.434       .  S
O108       Al306   1.920       .  S
C109        C169   1.430       .  S
C109        O310   1.258       .  A
C110        C171   1.429       .  S
C110        O111   1.263       .  A
C112        C113   1.401       .  A
C112        C117   1.400       .  A
C112        C195   1.432   1_455  S
C113        C114   1.399       .  A
C113        H118   1.085       .  S
C114        C115   1.400       .  A
C114        C174   1.438       .  S
C115        C116   1.400       .  A
C115        H119   1.085       .  S
C116        C117   1.398       .  A
C116        C172   1.435       .  S
C117        H120   1.085       .  S
C121        C122   1.403       .  A
C121        C334   1.401   1_554  A
C121        C170   1.435   1_554  S
C122        C123   1.400       .  A
C122        H127   1.084       .  S
C123        C124   1.401       .  A
C123        C168   1.440       .  S
C124        C333   1.400   1_554  A
C124        H128   1.085       .  S
C125        C126   1.398       .  A
C125        C332   1.400       .  A
C125        C165   1.437       .  S
C126        C329   1.401       .  A
C126        H129   1.085       .  S
O130        C145   1.259       .  A
O130       Al138   1.905       .  S
C131        C180   1.430       .  S
C131        O141   1.258       .  A
C131        O132   1.260       .  A
O132       Al134   1.913       .  S
O133        C135   1.258       .  A
O133       Al134   1.888       .  S
Al134       O142   1.889       .  S
Al134       O144   1.907       .  S
Al134       O143   1.785       .  S
C135        C164   1.430       .  S
C135        O148   1.263       .  A
O136        C146   1.259       .  A
O136       Al138   1.902       .  S
O137        C150   1.258       .  A
O137       Al147   1.889       .  S
Al138       O151   1.920       .  S
Al138       O148   1.920       .  S
Al138       O143   1.787       .  S
O139        C146   1.259       .  A
O139       Al147   1.905       .  S
O140        C149   1.260       .  A
O140       Al147   1.912       .  S
O141       Al147   1.893       .  S
O142        C149   1.257       .  A
O143       Al147   1.785       .  S
O144        C145   1.259       .  A
C145        C167   1.434       .  S
C146        C161   1.432       .  S
C149        C182   1.427       .  S
C150        C166   1.431       .  S
C150        O151   1.262       .  A
C152        C153   1.400       .  A
C152        C365   1.401   1_554  A
C152        C184   1.432       .  S
C153        C154   1.398       .  A
C153        H158   1.085       .  S
C154        C155   1.400       .  A
C154        C163   1.436       .  S
C155        C364   1.401   1_554  A
C155        H159   1.085   1_554  S
C156        C157   1.399       .  A
C156        C363   1.401       .  A
C156        C162   1.438       .  S
C157        C360   1.401       .  A
C157        H160   1.085       .  S
C161        C162   1.204       .  T
C163        C164   1.203       .  T
C165        C166   1.204       .  T
C167        C168   1.206       .  T
C169        C170   1.203       .  T
C171        C172   1.203       .  T
C173        C174   1.204       .  T
C175        C176   1.206       .  T
C177        C178   1.204       .  T
C179        C180   1.203       .  T
C181        C182   1.201       .  T
C183        C184   1.201       .  T
C185        C186   1.203       .  T
C187        C188   1.204       .  T
C189        C190   1.206       .  T
C191        C192   1.204       .  T
C193        C194   1.203   1_554  T
C195        C196   1.201       .  T
C197        C198   1.203       .  T
C199        C200   1.206       .  T
C201        C202   1.204       .  T
C203        C204   1.203       .  T
C205        C206   1.204       .  T
C207        C208   1.201       .  T
C209        C214   1.400       .  A
C209        C416   1.432       .  S
C210        C211   1.399       .  A
C210        H215   1.085       .  S
C211        C212   1.400   1_556  A
C211        C414   1.438       .  S
C212        H216   1.085       .  S
C213        C214   1.398       .  A
C213        C412   1.435       .  S
C214        H217   1.085       .  S
O218        C233   1.259       .  A
O218       Al226   1.902       .  S
C219        C404   1.427       .  S
C219        O229   1.257       .  A
C219        O220   1.260       .  A
O220       Al222   1.912       .  S
O221        C223   1.258       .  A
O221       Al222   1.889       .  S
Al222       O230   1.893       .  S
Al222       O232   1.905       .  S
Al222       O231   1.785       .  S
C223        C410   1.431       .  S
C223        O236   1.262       .  A
O224        C234   1.259       .  A
O224       Al226   1.905       .  S
O225        C238   1.258       .  A
O225       Al235   1.888       .  S
Al226       O239   1.919       .  S
Al226       O236   1.920       .  S
Al226       O231   1.787       .  S
O227        C234   1.259       .  A
O227       Al235   1.907       .  S
O228        C237   1.260       .  A
O228       Al235   1.913       .  S
O229       Al235   1.888       .  S
O230        C237   1.258       .  A
O231       Al235   1.785       .  S
O232        C233   1.259       .  A
C233        C413   1.432       .  S
C234        C407   1.434       .  S
C237        C406   1.430       .  S
C238        C411   1.429       .  S
C238        O239   1.263       .  A
C240        C245   1.403       .  A
C240        C401   1.435       .  S
C241        C242   1.398       .  A
C241        H246   1.085       .  S
C242        C409   1.437       .  S
C243        C244   1.401       .  A
C243        H247   1.085       .  S
C244        C245   1.400       .  A
C244        C408   1.440       .  S
C245        H248   1.084       .  S
C249        C250   1.403       .  A
C249        C254   1.401       .  A
C249        C405   1.435       .  S
C250        C251   1.400       .  A
C250        H255   1.084       .  S
C251        C252   1.401   1_545  A
C251        C397   1.440   1_545  S
C252        C253   1.400   1_565  A
C252        H256   1.085       .  S
C253        C254   1.398       .  A
C253        C399   1.437   1_545  S
C254        H257   1.085       .  S
O258        C273   1.259       .  A
O258       Al266   1.905       .  S
C259        C402   1.430       .  S
C259        O260   1.260       .  A
O260       Al262   1.913       .  S
O261        C263   1.258       .  A
O261       Al262   1.888       .  S
Al262       O270   1.889       .  S
Al262       O272   1.907       .  S
Al262       O271   1.785       .  S
C263        C393   1.430       .  S
C263        O276   1.263       .  A
O264        C274   1.259       .  A
O265        C278   1.258       .  A
O265       Al275   1.889       .  S
Al266       O276   1.920       .  S
Al266       O271   1.787       .  S
O267        C274   1.259       .  A
O267       Al275   1.905       .  S
O268       Al275   1.912       .  S
O269       Al275   1.893       .  S
O270        C277   1.257       .  A
O272        C273   1.259       .  A
C273        C398   1.434       .  S
C274        C395   1.432       .  S
C277        C391   1.427       .  S
C278        C400   1.431       .  S
C278        O279   1.262       .  A
C280        C281   1.400       .  A
C280        C285   1.401       .  A
C280        C389   1.432       .  S
C281        C282   1.398   1_455  A
C281        H286   1.085       .  S
C282        C283   1.400       .  A
C282        C394   1.436       .  S
C283        C284   1.401       .  A
C283        H287   1.085       .  S
C284        C285   1.399   1_655  A
C284        C396   1.438       .  S
C285        H288   1.085       .  S
C289        C290   1.401       .  A
C289        C294   1.403       .  A
C289        C387   1.435   1_545  S
C290        C291   1.398       .  A
C290        H295   1.085       .  S
C291        C292   1.400       .  A
C291        C386   1.437       .  S
C292        C293   1.401       .  A
C292        H296   1.085       .  S
C293        C294   1.400       .  A
C293        C383   1.440       .  S
C294        H297   1.084       .  S
O298        C313   1.259       .  A
C299        C415   1.427       .  S
C299        O309   1.257       .  A
O300       Al302   1.912       .  S
O301        C303   1.258       .  A
O301       Al302   1.889       .  S
Al302       O310   1.893       .  S
Al302       O312   1.905       .  S
C303        C385   1.431       .  S
C303        O316   1.262       .  A
O304        C314   1.259       .  A
O304       Al306   1.905       .  S
O305        C318   1.258       .  A
O305       Al315   1.888       .  S
Al306       O319   1.919       .  S
Al306       O311   1.787       .  S
O307        C314   1.259       .  A
O307       Al315   1.907       .  S
O308        C317   1.260       .  A
O308       Al315   1.913       .  S
O309       Al315   1.888       .  S
O311       Al315   1.785       .  S
O312        C313   1.259       .  A
C313        C381   1.432       .  S
C314        C384   1.434       .  S
C317        C377   1.430       .  S
C318        C379   1.429       .  S
C318        O319   1.263       .  A
C320        C321   1.401       .  A
C320        C325   1.400       .  A
C320        C403   1.432   1_455  S
C321        C322   1.399       .  A
C321        H326   1.085       .  S
C322        C323   1.400       .  A
C322        C382   1.438       .  S
C323        C324   1.400       .  A
C323        H327   1.085       .  S
C324        C325   1.398       .  A
C324        C380   1.435       .  S
C325        H328   1.085       .  S
C329        C330   1.403       .  A
C329        C378   1.435       .  S
C330        C331   1.400       .  A
C330        H335   1.084       .  S
C331        C332   1.401       .  A
C331        C376   1.440       .  S
C332        H336   1.085       .  S
C333        C334   1.398       .  A
C333        C373   1.437       .  S
C334        H337   1.085       .  S
O338        C353   1.259       .  A
O338       Al346   1.905       .  S
C339        C388   1.430       .  S
C339        O349   1.258       .  A
C339        O340   1.260       .  A
O340       Al342   1.913       .  S
O341        C343   1.258       .  A
O341       Al342   1.888       .  S
Al342       O350   1.889       .  S
Al342       O352   1.907       .  S
Al342       O351   1.785       .  S
C343        C372   1.430       .  S
C343        O356   1.263       .  A
O344        C354   1.259       .  A
O344       Al346   1.902       .  S
O345        C358   1.258       .  A
O345       Al355   1.889       .  S
Al346       O359   1.920       .  S
Al346       O356   1.919       .  S
Al346       O351   1.787       .  S
O347        C354   1.259       .  A
O347       Al355   1.905       .  S
O348        C357   1.260       .  A
O348       Al355   1.912       .  S
O349       Al355   1.893       .  S
O350        C357   1.257       .  A
O351       Al355   1.785       .  S
O352        C353   1.259       .  A
C353        C375   1.434       .  S
C354        C369   1.432       .  S
C357        C390   1.427       .  S
C358        C374   1.431       .  S
C358        O359   1.262       .  A
C360        C361   1.400       .  A
C360        C392   1.432       .  S
C361        C362   1.398       .  A
C361        H366   1.085       .  S
C362        C363   1.400       .  A
C362        C371   1.436       .  S
C363        H367   1.085       .  S
C364        C365   1.399       .  A
C364        C370   1.438       .  S
C365        H368   1.085       .  S
C369        C370   1.204       .  T
C371        C372   1.203       .  T
C373        C374   1.204       .  T
C375        C376   1.206       .  T
C377        C378   1.203       .  T
C379        C380   1.203       .  T
C381        C382   1.204       .  T
C383        C384   1.206       .  T
C385        C386   1.204       .  T
C387        C388   1.203       .  T
C389        C390   1.201       .  T
C391        C392   1.201       .  T
C393        C394   1.203       .  T
C395        C396   1.204       .  T
C397        C398   1.206       .  T
C399        C400   1.204       .  T
C401        C402   1.203       .  T
C403        C404   1.201       .  T
C405        C406   1.203       .  T
C407        C408   1.206       .  T
C409        C410   1.204       .  T
C411        C412   1.203       .  T
C413        C414   1.204       .  T
C415        C416   1.201       .  T
