geometry optimzed in LAMMPS
_audit_creation_date              2020-11-30 
_audit_creation_method            'lammps2cif' 
_symmetry_space_group_name_H-M    'P1' 
_symmetry_Int_Tables_number       1 
_symmetry_cell_setting            triclinic 
loop_ 
_symmetry_equiv_pos_as_xyz 
  x,y,z 
_cell_length_a                    29.93108902 
_cell_length_b                    32.14411582709079 
_cell_length_c                    25.540178993038086 
_cell_angle_alpha                 90.11288879337448 
_cell_angle_beta                  90.06356053066035 
_cell_angle_gamma                 87.77061423185309 
loop_ 
_atom_site_label 
_atom_site_type_symbol 
_atom_site_fract_x 
_atom_site_fract_y 
_atom_site_fract_z 
_atom_site_charge 
O1          O  0.13271060  0.45770540  0.19808029    -0.74000
O2          O  0.13484475  0.04295696  0.30477397    -0.74000
O3          O  0.13972329  0.04384751  0.19521661    -0.74100
O4          O  0.12797284  0.46135276  0.30573633    -0.74100
O5          O  0.20213017  0.45256949  0.30462592    -0.74000
O6          O  0.21336950  0.03721080  0.20323973    -0.74000
O7          O  0.20877133  0.03240728  0.30962447    -0.74000
O8          O  0.20676027  0.45239223  0.20228276    -0.74100
Ni9        Ni  0.13068790  0.00191921  0.24999122     1.25400
Ni10       Ni  0.21011805  0.49357166  0.25447298     1.25400
C11         C  0.17014282  0.43985532  0.18458221     0.88200
C12         C  0.17231771  0.04786723  0.32805349     0.88100
C13         C  0.17913490  0.05493568  0.18185474     0.88200
C14         C  0.16457906  0.44692532  0.32599162     0.88300
C15         C  0.22468625  0.17270966  0.49975943    -0.02000
C16         C  0.21520169  0.32872078  0.50057999    -0.02000
O17         O  0.29414059  0.05522675  0.29310639    -0.74000
O18         O  0.28885478  0.46271150  0.20042405    -0.74000
O19         O  0.28793138  0.47066240  0.30486093    -0.74100
O20         O  0.29594013  0.04282960  0.18729922    -0.74100
O21         O  0.37006344  0.03731903  0.18948596    -0.74000
O22         O  0.36161981  0.45912522  0.30432121    -0.74000
O23         O  0.36261290  0.45503169  0.19598096    -0.74000
O24         O  0.36784085  0.04501295  0.29911305    -0.74100
Ni25       Ni  0.28939933  0.50831725  0.24692535     1.25400
Ni26       Ni  0.36852029  0.49910748  0.24794588     1.25400
C27         C  0.33143755  0.06517004  0.31278951     0.88200
C28         C  0.32356789  0.44644041  0.17893888     0.88100
C29         C  0.32274048  0.45049393  0.32158497     0.88200
C30         C  0.33359197  0.04880280  0.16622609     0.88300
C31         C  0.28827665  0.17321642  0.50019335    -0.02000
C32         C  0.27892281  0.32880523  0.49461260    -0.02000
O33         O  0.44593930  0.21389761  0.22711059    -0.74000
O34         O  0.06202669  0.21001136  0.28597469    -0.74000
O35         O  0.03016393  0.21185144  0.18845568    -0.74100
O36         O  0.47945235  0.20772188  0.32501595    -0.74100
O37         O  0.47031491  0.13978618  0.31452611    -0.74000
O38         O  0.04394475  0.14360844  0.19166894    -0.74000
O39         O  0.05866263  0.14172416  0.29712541    -0.74000
O40         O  0.45281577  0.14699214  0.20707290    -0.74100
Ni41       Ni  0.00418561  0.21316946  0.25668687     1.25400
Ni42       Ni  0.00626230  0.13979905  0.25222920     1.25400
C43         C  0.43236804  0.18304566  0.20182611     0.88200
C44         C  0.07662054  0.17672112  0.30716894     0.88100
C45         C  0.04948444  0.17894342  0.17037656     0.88200
C46         C  0.46527813  0.17313306  0.34164341     0.88300
C47         C  0.18064551  0.21855476  0.49849594    -0.02000
C48         C  0.32669856  0.22003826  0.50524970    -0.02000
O49         O  0.03440775  0.34772220  0.31084738    -0.74000
O50         O  0.45451951  0.35142257  0.19200865    -0.74000
O51         O  0.44263825  0.34968204  0.29623659    -0.74100
O52         O  0.04568223  0.34986640  0.20574744    -0.74100
O53         O  0.05296322  0.28133710  0.21456690    -0.74000
O54         O  0.43988265  0.28136439  0.28335119    -0.74000
O55         O  0.46536548  0.28278908  0.18422102    -0.74000
O56         O  0.02631518  0.27936486  0.31387072    -0.74100
Ni57       Ni  0.99429419  0.35269271  0.25135256     1.25400
Ni58       Ni  0.99625582  0.27893535  0.24882983     1.25400
C59         C  0.04359261  0.31196524  0.33138454     0.88200
C60         C  0.44624760  0.31678068  0.16971423     0.88100
C61         C  0.42366435  0.31497973  0.30317407     0.88200
C62         C  0.06653855  0.31505297  0.19576156     0.88300
C63         C  0.17710907  0.28009502  0.50295452    -0.02000
C64         C  0.32086561  0.28083457  0.49417477    -0.02000
C65         C  0.34743348  0.30034463  0.34225181    -0.20900
C66         C  0.39265300  0.31013148  0.34646345    -0.08900
C67         C  0.41447224  0.30066071  0.39246059     0.30000
C68         C  0.39208643  0.28388906  0.43346397    -0.20900
C69         C  0.34528480  0.28575505  0.43832475    -0.08900
C70         C  0.32387948  0.28842457  0.38794185     0.30000
F71         F  0.28215194  0.27446197  0.38266022    -0.19400
H72         H  0.33090653  0.30098464  0.30452663     0.18300
H73         H  0.41317054  0.26880878  0.46135164     0.18300
F74         F  0.45920496  0.30359027  0.39621421    -0.19400
C75         C  0.43015693  0.31962003  0.07664927    -0.20900
C76         C  0.41466471  0.31478572  0.12656637    -0.08900
C77         C  0.37006107  0.30563440  0.13407240     0.30000
C78         C  0.34239422  0.29898096  0.09049887    -0.20900
C79         C  0.35696160  0.29816075  0.03787007    -0.08900
C80         C  0.40212642  0.31513101  0.03378099     0.30000
F81         F  0.41995212  0.33537660  0.99290488    -0.19400
H82         H  0.46400125  0.32965503  0.07072948     0.18300
H83         H  0.30948399  0.29084177  0.09725672     0.18300
F84         F  0.35324673  0.30248925  0.18318787    -0.19400
C85         C  0.06145427  0.29077222  0.42175456    -0.20900
C86         C  0.07552308  0.30638608  0.37442180    -0.08900
C87         C  0.12108555  0.30904753  0.36616554     0.30000
C88         C  0.15092811  0.29985967  0.40731549    -0.20900
C89         C  0.13869987  0.28864127  0.45855362    -0.08900
C90         C  0.09102065  0.28285097  0.46284029     0.30000
F91         F  0.06888406  0.27529999  0.50754051    -0.19400
H92         H  0.02681529  0.28510226  0.42833856     0.18300
H93         H  0.18465461  0.30294801  0.40086927     0.18300
F94         F  0.13703720  0.32064843  0.31885312    -0.19400
C95         C  0.16484600  0.28110964  0.10787181    -0.20900
C96         C  0.14822870  0.29175460  0.05730965    -0.08900
C97         C  0.11071553  0.32200221  0.06204903     0.30000
C98         C  0.08763163  0.33042703  0.10775153    -0.20900
C99         C  0.10034295  0.31235304  0.15400681    -0.08900
C100        C  0.14022342  0.28805350  0.15489073     0.30000
F101        F  0.15605412  0.27207203  0.20070740    -0.19400
H102        H  0.19788359  0.26706833  0.11085702     0.18300
H103        H  0.05785042  0.35081628  0.10610187     0.18300
F104        F  0.09313892  0.34566198  0.02365761    -0.19400
C105        C  0.33243594  0.21804508  0.11241691    -0.20900
C106        C  0.35326314  0.21674369  0.06171972    -0.08900
C107        C  0.40131771  0.21806337  0.06741275     0.30000
C108        C  0.42399641  0.20245759  0.11102245    -0.20900
C109        C  0.40202906  0.19354637  0.15687225    -0.08900
C110        C  0.35656332  0.20711083  0.15959589     0.30000
F111        F  0.33507509  0.20797044  0.20631666    -0.19400
H112        H  0.29793438  0.22799770  0.11548790     0.18300
H113        H  0.46016993  0.20014904  0.10986935     0.18300
F114        F  0.42888809  0.23275184  0.03083319    -0.19400
C115        C  0.43936576  0.16233381  0.43639252    -0.20900
C116        C  0.43335952  0.17566978  0.38464589    -0.08900
C117        C  0.39411530  0.19549557  0.37166889     0.30000
C118        C  0.36435753  0.20678820  0.40982506    -0.20900
C119        C  0.36794190  0.20154267  0.46466830    -0.08900
C120        C  0.40571188  0.17200599  0.47466945     0.30000
F121        F  0.41004304  0.14960612  0.51927092    -0.19400
H122        H  0.46872677  0.14340815  0.44683976     0.18300
H123        H  0.33721852  0.22017136  0.39231465     0.18300
F124        F  0.38414116  0.20533411  0.32096045    -0.19400
C125        C  0.14073658  0.21236768  0.34954757    -0.20900
C126        C  0.10872878  0.18160752  0.34999128    -0.08900
C127        C  0.10231153  0.16039924  0.39606141     0.30000
C128        C  0.12624168  0.17066782  0.44042235    -0.20900
C129        C  0.15520398  0.20520153  0.44479238    -0.08900
C130        C  0.16601163  0.22064125  0.39524708     0.30000
F131        F  0.20556413  0.23912318  0.38948436    -0.19400
H132        H  0.14861083  0.22774538  0.31319992     0.18300
H133        H  0.11845884  0.15144276  0.47173266     0.18300
F134        F  0.07176694  0.13030638  0.39933494    -0.19400
C135        C  0.15377660  0.20064829  0.09639082    -0.20900
C136        C  0.14160958  0.20657979  0.04304192    -0.08900
C137        C  0.09318421  0.20154053  0.03645713     0.30000
C138        C  0.06479372  0.19052864  0.07711224    -0.20900
C139        C  0.08065298  0.18332268  0.12692440    -0.08900
C140        C  0.12553668  0.18845582  0.13666560     0.29600
F141        F  0.14217675  0.18340367  0.18584714    -0.19400
H142        H  0.18678918  0.20609004  0.10815501     0.18300
H143        H  0.02941797  0.18808239  0.06928764     0.18300
F144        F  0.06916131  0.20619301  0.99166153    -0.19400
C145        C  0.26936743  0.40421716  0.05713898    -0.20900
C146        C  0.29563356  0.36804413  0.03908174    -0.08900
C147        C  0.34030479  0.38002249  0.05676878     0.30000
C148        C  0.34868872  0.39598068  0.10748893    -0.20900
C149        C  0.31607235  0.42092489  0.13123973    -0.08900
C150        C  0.27791664  0.42879808  0.10118591     0.30000
F151        F  0.24968204  0.46190321  0.11157125    -0.19400
H152        H  0.23859089  0.41523113  0.04186968     0.18300
H153        H  0.38281221  0.39824895  0.12105198     0.18300
F154        F  0.37041384  0.39691965  0.02468200    -0.19400
C155        C  0.28074326  0.38949422  0.35171597    -0.20900
C156        C  0.31621888  0.41560452  0.35907345    -0.08900
C157        C  0.34515544  0.40542237  0.39998114     0.30000
C158        C  0.33373910  0.37459703  0.43630614    -0.20900
C159        C  0.29208818  0.35488138  0.43977729    -0.08900
C160        C  0.26976655  0.35940035  0.38920232     0.30000
F161        F  0.23675287  0.33621013  0.37344825    -0.19400
H162        H  0.26073083  0.39236120  0.31646240     0.18300
H163        H  0.36004049  0.36151744  0.45758696     0.18300
F164        F  0.38516663  0.42362983  0.40398867    -0.19400
C165        C  0.30420060  0.13482198  0.35283547    -0.20900
C166        C  0.33056873  0.09751891  0.35547092    -0.08900
C167        C  0.35122633  0.08863737  0.40309325     0.30000
C168        C  0.34073405  0.11282296  0.44743726    -0.20900
C169        C  0.30620339  0.14610211  0.44864536    -0.08900
C170        C  0.29434191  0.15874104  0.39903832     0.30000
F171        F  0.27478012  0.19729187  0.39768470    -0.19400
H172        H  0.29085246  0.14515929  0.31545675     0.18300
H173        H  0.35931964  0.10293923  0.48163173     0.18300
F174        F  0.37976284  0.05497909  0.40801372    -0.19400
C175        C  0.29932823  0.06236309  0.07819450    -0.20900
C176        C  0.33305086  0.06940419  0.11464114    -0.08900
C177        C  0.35951654  0.10258271  0.10494321     0.30000
C178        C  0.33807541  0.13640941  0.07995147    -0.20900
C179        C  0.30461968  0.13438028  0.04095711    -0.08900
C180        C  0.29075722  0.09128288  0.03760423     0.30000
F181        F  0.27932090  0.07320160  0.99237483    -0.19400
H182        H  0.28217745  0.03333342  0.07877133     0.18300
H183        H  0.32408862  0.14791306  0.11541585     0.18300
F184        F  0.39517377  0.10880628  0.13627643    -0.19400
C185        C  0.15098025  0.37563281  0.43952542    -0.20900
C186        C  0.19646900  0.36866030  0.45887823    -0.08900
C187        C  0.21707821  0.40926407  0.44862571     0.30000
C188        C  0.20324645  0.43610137  0.40849874    -0.20900
C189        C  0.16720652  0.42755842  0.37746895    -0.08900
C190        C  0.13752189  0.40078297  0.39718143     0.30000
F191        F  0.09579214  0.39896273  0.37666081    -0.19400
H192        H  0.12342540  0.36095168  0.45389599     0.18300
H193        H  0.22415452  0.46171971  0.39803939     0.18300
F194        F  0.25706072  0.42274545  0.46388945    -0.19400
C195        C  0.20467378  0.37321270  0.14973599    -0.20900
C196        C  0.17323305  0.40648679  0.14522857    -0.08900
C197        C  0.15284847  0.41323532  0.09785295     0.30000
C198        C  0.16566306  0.38940679  0.05484801    -0.20900
C199        C  0.19947989  0.35516054  0.05450668    -0.08900
C200        C  0.21707543  0.34817344  0.10615214     0.30000
F201        F  0.24703903  0.31760736  0.11554792    -0.19400
H202        H  0.22150711  0.36767915  0.18679580     0.18300
H203        H  0.14709811  0.40128864  0.02272688     0.18300
F204        F  0.12302619  0.44587092  0.09134213    -0.19400
C205        C  0.18797003  0.11460627  0.35709855    -0.20900
C206        C  0.17641583  0.07651870  0.37180275    -0.08900
C207        C  0.18511974  0.06479868  0.42313420     0.30000
C208        C  0.20203765  0.09356266  0.45952988    -0.20900
C209        C  0.21238288  0.13687118  0.44953211    -0.08900
C210        C  0.20701622  0.14196946  0.39148328     0.30000
F211        F  0.21918382  0.17135425  0.35781489    -0.19400
H212        H  0.18468107  0.12257155  0.31562032     0.18300
H213        H  0.20763041  0.07824252  0.49608430     0.18300
F214        F  0.17832998  0.02516863  0.43843121    -0.19400
C215        C  0.22182816  0.11519178  0.14409391    -0.20900
C216        C  0.18660835  0.08773587  0.14060856    -0.08900
C217        C  0.15955680  0.09198195  0.09661372     0.30000
C218        C  0.17017389  0.11955004  0.05592203    -0.20900
C219        C  0.21011387  0.14383009  0.05260000    -0.08900
C220        C  0.23097780  0.14375618  0.10334127     0.30000
F221        F  0.25526555  0.17572642  0.11713230    -0.19400
H222        H  0.24114848  0.11628208  0.17991712     0.18300
H223        H  0.14715463  0.11769116  0.02526889     0.18300
F224        F  0.12323533  0.06826581  0.09136851    -0.19400
O225        O  0.13263149  0.45756250  0.69801289    -0.74000
O226        O  0.13474535  0.04293836  0.80465191    -0.74000
O227        O  0.13958230  0.04370702  0.69504787    -0.74100
O228        O  0.12789302  0.46121470  0.80566635    -0.74100
O229        O  0.20205557  0.45250043  0.80452195    -0.74000
O230        O  0.21322965  0.03722269  0.70319328    -0.74000
O231        O  0.20866106  0.03233609  0.80958174    -0.74000
O232        O  0.20669076  0.45239287  0.70215364    -0.74100
Ni233      Ni  0.13058899  0.00182943  0.74993115     1.25400
Ni234      Ni  0.20998812  0.49354495  0.75437402     1.25400
C235        C  0.17009463  0.43979239  0.68447709     0.88200
C236        C  0.17221037  0.04783435  0.82796857     0.88100
C237        C  0.17898416  0.05486487  0.68172571     0.88200
C238        C  0.16451515  0.44678809  0.82589355     0.88300
C239        C  0.22470178  0.17264263  0.99976667    -0.02000
C240        C  0.21513353  0.32868138  0.00072332    -0.02000
O241        O  0.29415246  0.05507999  0.79311044    -0.74000
O242        O  0.28882551  0.46255649  0.70042741    -0.74000
O243        O  0.28795440  0.47056789  0.80486576    -0.74100
O244        O  0.29589498  0.04272542  0.68728563    -0.74100
O245        O  0.37002213  0.03719610  0.68940717    -0.74000
O246        O  0.36164667  0.45903798  0.80428512    -0.74000
O247        O  0.36258913  0.45492891  0.69593290    -0.74000
O248        O  0.36786158  0.04489571  0.79904993    -0.74100
Ni249      Ni  0.28936399  0.50818436  0.74689418     1.25400
Ni250      Ni  0.36849132  0.49900938  0.74787064     1.25400
C251        C  0.33145673  0.06503778  0.81276074     0.88200
C252        C  0.32354472  0.44633095  0.67890475     0.88100
C253        C  0.32277568  0.45042278  0.82159762     0.88200
C254        C  0.33353823  0.04870655  0.66618462     0.88300
C255        C  0.28828073  0.17315950  0.00014013    -0.02000
C256        C  0.27885680  0.32879502  0.99468420    -0.02000
O257        O  0.44611137  0.21384939  0.72700584    -0.74000
O258        O  0.06225802  0.20989795  0.78594387    -0.74000
O259        O  0.03044207  0.21168282  0.68843671    -0.74100
O260        O  0.47951841  0.20777622  0.82488976    -0.74100
O261        O  0.47042921  0.13982033  0.81450053    -0.74000
O262        O  0.04418146  0.14343396  0.69173775    -0.74000
O263        O  0.05879513  0.14163345  0.79724190    -0.74000
O264        O  0.45298246  0.14691612  0.70706727    -0.74100
Ni265      Ni  0.00444034  0.21307831  0.75664280     1.25400
Ni266      Ni  0.00644233  0.13970627  0.75227526     1.25400
C267        C  0.43253775  0.18296611  0.70179003     0.88200
C268        C  0.07677285  0.17662802  0.80724188     0.88100
C269        C  0.04972033  0.17874745  0.67038066     0.88200
C270        C  0.46530196  0.17320708  0.84152273     0.88300
C271        C  0.18066400  0.21848974  0.99859846    -0.02000
C272        C  0.32664003  0.22002748  0.00512070    -0.02000
O273        O  0.03459266  0.34761092  0.81084405    -0.74000
O274        O  0.45462930  0.35143310  0.69202731    -0.74000
O275        O  0.44284652  0.34970483  0.79629846    -0.74100
O276        O  0.04578134  0.34984975  0.70570359    -0.74100
O277        O  0.05301926  0.28130407  0.71437887    -0.74000
O278        O  0.44003986  0.28139561  0.78338059    -0.74000
O279        O  0.46548210  0.28280266  0.68421959    -0.74000
O280        O  0.02652333  0.27925046  0.81377095    -0.74100
Ni281      Ni  0.99443995  0.35264315  0.75137020     1.25400
Ni282      Ni  0.99636877  0.27888354  0.74877803     1.25400
C283        C  0.04378045  0.31183926  0.83134735     0.88200
C284        C  0.44635477  0.31679513  0.66972252     0.88100
C285        C  0.42384272  0.31501262  0.80323110     0.88200
C286        C  0.06659070  0.31503779  0.69560752     0.88300
C287        C  0.17709672  0.28002336  0.00313646    -0.02000
C288        C  0.32080813  0.28083458  0.99413010    -0.02000
C289        C  0.34751827  0.30048285  0.84223161    -0.20900
C290        C  0.39277094  0.31017233  0.84649516    -0.08900
C291        C  0.41452243  0.30060968  0.89250524     0.30000
C292        C  0.39205608  0.28387451  0.93347084    -0.20900
C293        C  0.34525227  0.28579387  0.93828515    -0.08900
C294        C  0.32389764  0.28853636  0.88787656     0.30000
F295        F  0.28216090  0.27459310  0.88250860    -0.19400
H296        H  0.33102100  0.30118985  0.80448967     0.18300
H297        H  0.41308928  0.26876385  0.96137570     0.18300
F298        F  0.45926551  0.30339468  0.89630970    -0.19400
C299        C  0.43021932  0.31965291  0.57665095    -0.20900
C300        C  0.41475233  0.31480655  0.62657998    -0.08900
C301        C  0.37015127  0.30564739  0.63410473     0.30000
C302        C  0.34246864  0.29896959  0.59054669    -0.20900
C303        C  0.35701585  0.29817093  0.53790412    -0.08900
C304        C  0.40217314  0.31515648  0.53379375     0.30000
F305        F  0.41998603  0.33539087  0.49290290    -0.19400
H306        H  0.46405871  0.32969434  0.57071145     0.18300
H307        H  0.30958793  0.29074915  0.59734398     0.18300
F308        F  0.35335270  0.30252869  0.68322997    -0.19400
C309        C  0.06152545  0.29055381  0.92173497    -0.20900
C310        C  0.07565156  0.30623835  0.87445713    -0.08900
C311        C  0.12122029  0.30902965  0.86634939     0.30000
C312        C  0.15100419  0.29979537  0.90754583    -0.20900
C313        C  0.13870169  0.28857302  0.95873797    -0.08900
C314        C  0.09101672  0.28276736  0.96293940     0.30000
F315        F  0.06880119  0.27529889  0.00761828    -0.19400
H316        H  0.02689153  0.28476818  0.92818882     0.18300
H317        H  0.18475370  0.30287070  0.90121527     0.18300
F318        F  0.13722981  0.32090009  0.81917926    -0.19400
C319        C  0.16486989  0.28122047  0.60764082    -0.20900
C320        C  0.14823345  0.29186162  0.55710098    -0.08900
C321        C  0.11071630  0.32211759  0.56185638     0.30000
C322        C  0.08760611  0.33047272  0.60756363    -0.20900
C323        C  0.10034964  0.31238071  0.65380288    -0.08900
C324        C  0.14026739  0.28814356  0.65466641     0.30000
F325        F  0.15616528  0.27221747  0.70047844    -0.19400
H326        H  0.19792174  0.26720803  0.61059786     0.18300
H327        H  0.05779794  0.35082847  0.60593909     0.18300
F328        F  0.09311490  0.34578619  0.52347720    -0.19400
C329        C  0.33254355  0.21798573  0.61257309    -0.20900
C330        C  0.35333508  0.21675204  0.56185242    -0.08900
C331        C  0.40139239  0.21814163  0.56751636     0.30000
C332        C  0.42411739  0.20249041  0.61106261    -0.20900
C333        C  0.40217892  0.19344446  0.65688068    -0.08900
C334        C  0.35671015  0.20695930  0.65968970     0.30000
F335        F  0.33525686  0.20764984  0.70643202    -0.19400
H336        H  0.29803085  0.22788190  0.61570697     0.18300
H337        H  0.46029277  0.20024061  0.60988636     0.18300
F338        F  0.42892400  0.23287976  0.53092575    -0.19400
C339        C  0.43925083  0.16237235  0.93616706    -0.20900
C340        C  0.43331125  0.17577741  0.88445008    -0.08900
C341        C  0.39407609  0.19562659  0.87144224     0.30000
C342        C  0.36424938  0.20684712  0.90958077    -0.20900
C343        C  0.36783590  0.20157108  0.96444894    -0.08900
C344        C  0.40558907  0.17202822  0.97442392     0.30000
F345        F  0.40990076  0.14960225  0.01899872    -0.19400
H346        H  0.46858831  0.14341471  0.94661340     0.18300
H347        H  0.33710647  0.22023834  0.89203342     0.18300
F348        F  0.38417807  0.20553524  0.82073377    -0.19400
C349        C  0.14079968  0.21232616  0.84966463    -0.20900
C350        C  0.10879855  0.18156222  0.85011472    -0.08900
C351        C  0.10233121  0.16038587  0.89619588     0.30000
C352        C  0.12628552  0.17062867  0.94053676    -0.20900
C353        C  0.15524910  0.20515828  0.94489476    -0.08900
C354        C  0.16607493  0.22059649  0.89535388     0.30000
F355        F  0.20563355  0.23906597  0.88957379    -0.19400
H356        H  0.14868909  0.22768864  0.81331070     0.18300
H357        H  0.11851470  0.15140260  0.97185909     0.18300
F358        F  0.07172522  0.13034991  0.89949740    -0.19400
C359        C  0.15383592  0.20074083  0.59630294    -0.20900
C360        C  0.14161766  0.20665917  0.54296931    -0.08900
C361        C  0.09320605  0.20152629  0.53642496     0.30000
C362        C  0.06489093  0.19038152  0.57709582    -0.20900
C363        C  0.08082782  0.18310276  0.62686772    -0.08900
C364        C  0.12569754  0.18833703  0.63656184     0.29600
F365        F  0.14243561  0.18308908  0.68566931    -0.19400
H366        H  0.18685250  0.20622652  0.60802306     0.18300
H367        H  0.02951441  0.18788636  0.56931860     0.18300
F368        F  0.06914050  0.20620471  0.49166138    -0.19400
C369        C  0.26942481  0.40428220  0.55698355    -0.20900
C370        C  0.29567353  0.36807130  0.53897842    -0.08900
C371        C  0.34033195  0.38001091  0.55669464     0.30000
C372        C  0.34868717  0.39593481  0.60743141    -0.20900
C373        C  0.31606753  0.42088427  0.63116147    -0.08900
C374        C  0.27795973  0.42883905  0.60105547     0.30000
F375        F  0.24975524  0.46196776  0.61144877    -0.19400
H376        H  0.23866003  0.41531708  0.54169464     0.18300
H377        H  0.38280056  0.39817204  0.62103875     0.18300
F378        F  0.37044137  0.39692219  0.52462260    -0.19400
C379        C  0.28076754  0.38946180  0.85175682    -0.20900
C380        C  0.31624450  0.41556570  0.85913107    -0.08900
C381        C  0.34509683  0.40545340  0.90014481     0.30000
C382        C  0.33364970  0.37461769  0.93643728    -0.20900
C383        C  0.29200041  0.35490023  0.93986930    -0.08900
C384        C  0.26970058  0.35943057  0.88927951     0.30000
F385        F  0.23660214  0.33633381  0.87353710    -0.19400
H386        H  0.26078726  0.39231863  0.81647624     0.18300
H387        H  0.35994092  0.36150211  0.95770270     0.18300
F388        F  0.38505163  0.42374277  0.90430891    -0.19400
C389        C  0.30418671  0.13468369  0.85280900    -0.20900
C390        C  0.33058841  0.09739713  0.85543599    -0.08900
C391        C  0.35126632  0.08853775  0.90305138     0.30000
C392        C  0.34073365  0.11270298  0.94740783    -0.20900
C393        C  0.30621386  0.14600143  0.94861010    -0.08900
C394        C  0.29434935  0.15862300  0.89900532     0.30000
F395        F  0.27478242  0.19717201  0.89766395    -0.19400
H396        H  0.29080892  0.14499936  0.81543558     0.18300
H397        H  0.35931099  0.10280693  0.98160228     0.18300
F398        F  0.37988386  0.05493325  0.90794204    -0.19400
C399        C  0.29926469  0.06236354  0.57815279    -0.20900
C400        C  0.33297940  0.06937069  0.61462605    -0.08900
C401        C  0.35944356  0.10256161  0.60497228     0.30000
C402        C  0.33800694  0.13641042  0.58001222    -0.20900
C403        C  0.30457457  0.13440762  0.54098927    -0.08900
C404        C  0.29072238  0.09130936  0.53757723     0.30000
F405        F  0.27937033  0.07324269  0.49230330    -0.19400
H406        H  0.28212328  0.03332954  0.57867292     0.18300
H407        H  0.32398084  0.14787668  0.61547929     0.18300
F408        F  0.39511616  0.10875185  0.63629375    -0.19400
C409        C  0.15084357  0.37559992  0.93964666    -0.20900
C410        C  0.19634446  0.36861187  0.95900925    -0.08900
C411        C  0.21694200  0.40920134  0.94869995     0.30000
C412        C  0.20320307  0.43592550  0.90840526    -0.20900
C413        C  0.16717224  0.42736303  0.87736569    -0.08900
C414        C  0.13742415  0.40068670  0.89720499     0.30000
F415        F  0.09568509  0.39888011  0.87670260    -0.19400
H416        H  0.12327407  0.36091255  0.95399768     0.18300
H417        H  0.22413901  0.46151108  0.89790302     0.18300
F418        F  0.25686838  0.42273337  0.96406470    -0.19400
C419        C  0.20472184  0.37322068  0.64957462    -0.20900
C420        C  0.17324292  0.40646407  0.64508960    -0.08900
C421        C  0.15289702  0.41325849  0.59770310     0.30000
C422        C  0.16573618  0.38946504  0.55468350    -0.20900
C423        C  0.19954769  0.35521499  0.55434066    -0.08900
C424        C  0.21715255  0.34822319  0.60597038     0.30000
F425        F  0.24715861  0.31768843  0.61531225    -0.19400
H426        H  0.22155579  0.36767875  0.68663199     0.18300
H427        H  0.14719821  0.40138299  0.52256054     0.18300
F428        F  0.12309319  0.44591052  0.59120435    -0.19400
C429        C  0.18786634  0.11457801  0.85707805    -0.20900
C430        C  0.17631989  0.07647852  0.87174780    -0.08900
C431        C  0.18510467  0.06472802  0.92305685     0.30000
C432        C  0.20199894  0.09349060  0.95949373    -0.20900
C433        C  0.21237006  0.13680028  0.94952044    -0.08900
C434        C  0.20698547  0.14190722  0.89146545     0.30000
F435        F  0.21917244  0.17128365  0.85779089    -0.19400
H436        H  0.18453872  0.12257060  0.81561232     0.18300
H437        H  0.20757462  0.07816456  0.99604646     0.18300
F438        F  0.17844308  0.02505575  0.93827524    -0.19400
C439        C  0.22167673  0.11514935  0.64403154    -0.20900
C440        C  0.18646179  0.08768412  0.64048186    -0.08900
C441        C  0.15945246  0.09195650  0.59644773     0.30000
C442        C  0.17007840  0.11960247  0.55583694    -0.20900
C443        C  0.21004321  0.14386770  0.55256478    -0.08900
C444        C  0.23087545  0.14374337  0.60332165     0.30000
F445        F  0.25518660  0.17569291  0.61716541    -0.19400
H446        H  0.24096834  0.11621395  0.67987660     0.18300
H447        H  0.14708253  0.11776872  0.52516363     0.18300
F448        F  0.12318044  0.06819074  0.59106559    -0.19400
O449        O  0.13259931  0.95783957  0.19795212    -0.74000
O450        O  0.13489200  0.54285008  0.30487585    -0.74000
O451        O  0.13976471  0.54373755  0.19530759    -0.74100
O452        O  0.12785128  0.96146133  0.30563136    -0.74100
O453        O  0.20201024  0.95267935  0.30457647    -0.74000
O454        O  0.21340630  0.53722318  0.20340662    -0.74000
O455        O  0.20881004  0.53230683  0.30982904    -0.74000
O456        O  0.20664587  0.95242375  0.20223482    -0.74100
Ni457      Ni  0.13077237  0.50180299  0.25009701     1.25400
Ni458      Ni  0.21003553  0.99362498  0.25435871     1.25400
C459        C  0.17002114  0.93994913  0.18448935     0.88200
C460        C  0.17233566  0.54775663  0.32822379     0.88100
C461        C  0.17915873  0.55490230  0.18198416     0.88200
C462        C  0.16444820  0.94703942  0.32592317     0.88300
C463        C  0.22449195  0.67279031  0.49986072    -0.02000
C464        C  0.21507730  0.82883221  0.50058852    -0.02000
O465        O  0.29403899  0.55517608  0.29308585    -0.74000
O466        O  0.28877328  0.96277983  0.20042075    -0.74000
O467        O  0.28789191  0.97073119  0.30486891    -0.74100
O468        O  0.29591112  0.54277841  0.18727667    -0.74100
O469        O  0.37003366  0.53738128  0.18949161    -0.74000
O470        O  0.36156986  0.95909361  0.30429247    -0.74000
O471        O  0.36252838  0.95500846  0.19597235    -0.74000
O472        O  0.36774631  0.54507190  0.29913713    -0.74100
Ni473      Ni  0.28939899  0.00838079  0.24693935     1.25400
Ni474      Ni  0.36851596  0.99906069  0.24792776     1.25400
C475        C  0.33130359  0.56518115  0.31279012     0.88200
C476        C  0.32347014  0.94646857  0.17893345     0.88100
C477        C  0.32268015  0.95051984  0.32157282     0.88200
C478        C  0.33355246  0.54883271  0.16622291     0.88300
C479        C  0.28807889  0.67330769  0.50019961    -0.02000
C480        C  0.27879706  0.82889505  0.49460988    -0.02000
O481        O  0.44570712  0.71406003  0.22711550    -0.74000
O482        O  0.06176794  0.71017337  0.28608356    -0.74000
O483        O  0.02997764  0.71205274  0.18852966    -0.74100
O484        O  0.47913686  0.70787615  0.32502631    -0.74100
O485        O  0.47002219  0.63994039  0.31448102    -0.74000
O486        O  0.04376967  0.64380954  0.19174467    -0.74000
O487        O  0.05838415  0.64189127  0.29723352    -0.74000
O488        O  0.45263240  0.64715886  0.20705316    -0.74100
Ni489      Ni  0.00394619  0.71334816  0.25672813     1.25400
Ni490      Ni  0.00603352  0.63997818  0.25225761     1.25400
C491        C  0.43214712  0.68319607  0.20184716     0.88200
C492        C  0.07633047  0.67688541  0.30731213     0.88100
C493        C  0.04931705  0.67914901  0.17046623     0.88200
C494        C  0.46495081  0.67327922  0.34160585     0.88300
C495        C  0.18047068  0.71864560  0.49862338    -0.02000
C496        C  0.32650943  0.72013069  0.50528557    -0.02000
O497        O  0.03431443  0.84787720  0.31096968    -0.74000
O498        O  0.45454752  0.85153133  0.19199127    -0.74000
O499        O  0.44258329  0.84980959  0.29623377    -0.74100
O500        O  0.04572840  0.84999519  0.20586478    -0.74100
O501        O  0.05304050  0.78147033  0.21472123    -0.74000
O502        O  0.43983041  0.78149778  0.28332839    -0.74000
O503        O  0.46542372  0.78290196  0.18421380    -0.74000
O504        O  0.02623240  0.77952173  0.31400491    -0.74100
Ni505      Ni  0.99427933  0.85281807  0.25139031     1.25400
Ni506      Ni  0.99627738  0.77906577  0.24889146     1.25400
C507        C  0.04347294  0.81212892  0.33154643     0.88200
C508        C  0.44631093  0.81688836  0.16967163     0.88100
C509        C  0.42360428  0.81510765  0.30315686     0.88200
C510        C  0.06660215  0.81518598  0.19589117     0.88300
C511        C  0.17699516  0.78019510  0.50305912    -0.02000
C512        C  0.32074305  0.78092833  0.49415964    -0.02000
C513        C  0.34735782  0.80046472  0.34221424    -0.20900
C514        C  0.39257822  0.81024636  0.34644074    -0.08900
C515        C  0.41438384  0.80074396  0.39243901     0.30000
C516        C  0.39198624  0.78393438  0.43341752    -0.20900
C517        C  0.34518085  0.78584845  0.43829183    -0.08900
C518        C  0.32379050  0.78853309  0.38789260     0.30000
F519        F  0.28205565  0.77457778  0.38258857    -0.19400
H520        H  0.33083818  0.80111954  0.30448460     0.18300
H521        H  0.41306460  0.76884278  0.46130684     0.18300
F522        F  0.45911200  0.80370376  0.39622175    -0.19400
C523        C  0.43018135  0.81969942  0.07656561    -0.20900
C524        C  0.41472218  0.81487755  0.12650652    -0.08900
C525        C  0.37011577  0.80574957  0.13403831     0.30000
C526        C  0.34241678  0.79909854  0.09048778    -0.20900
C527        C  0.35694492  0.79824747  0.03783551    -0.08900
C528        C  0.40211864  0.81520399  0.03370898     0.30000
F529        F  0.41994007  0.83540647  0.99279686    -0.19400
H530        H  0.46402613  0.82972198  0.07061568     0.18300
H531        H  0.30948890  0.79102998  0.09729301     0.18300
F532        F  0.35331530  0.80266116  0.18316686    -0.19400
C533        C  0.06131241  0.79094791  0.42195395    -0.20900
C534        C  0.07538229  0.80655426  0.37460964    -0.08900
C535        C  0.12094624  0.80917304  0.36633215     0.30000
C536        C  0.15079788  0.79996285  0.40746210    -0.20900
C537        C  0.13857249  0.78875886  0.45870045    -0.08900
C538        C  0.09089386  0.78298715  0.46301872     0.30000
F539        F  0.06878661  0.77544353  0.50774321    -0.19400
H540        H  0.02666963  0.78531879  0.42856915     0.18300
H541        H  0.18453226  0.80302567  0.40099897     0.18300
F542        F  0.13689182  0.82077924  0.31902047    -0.19400
C543        C  0.16483276  0.78122067  0.10786242    -0.20900
C544        C  0.14818186  0.79190174  0.05733171    -0.08900
C545        C  0.11071133  0.82218865  0.06212880     0.30000
C546        C  0.08765744  0.83059623  0.10786072    -0.20900
C547        C  0.10038622  0.81248974  0.15409685    -0.08900
C548        C  0.14026011  0.78817338  0.15491874     0.30000
F549        F  0.15613713  0.77218550  0.20070951    -0.19400
H550        H  0.19786402  0.76714915  0.11078388     0.18300
H551        H  0.05789042  0.85100546  0.10625108     0.18300
F552        F  0.09315393  0.84589868  0.02376724    -0.19400
C553        C  0.33219561  0.71819452  0.11249493    -0.20900
C554        C  0.35304098  0.71685750  0.06180981    -0.08900
C555        C  0.40108996  0.71818613  0.06750550     0.30000
C556        C  0.42375894  0.70254870  0.11108426    -0.20900
C557        C  0.40178580  0.69367045  0.15693132    -0.08900
C558        C  0.35633240  0.70728658  0.15967682     0.30000
F559        F  0.33488623  0.70826278  0.20642386    -0.19400
H560        H  0.29770148  0.72819595  0.11555296     0.18300
H561        H  0.45993169  0.70021034  0.10991612     0.18300
F562        F  0.42865769  0.73290012  0.03093798    -0.19400
C563        C  0.43913495  0.66245663  0.43635850    -0.20900
C564        C  0.43304687  0.67577503  0.38461707    -0.08900
C565        C  0.39376609  0.69556816  0.37169663     0.30000
C566        C  0.36405847  0.70684861  0.40990958    -0.20900
C567        C  0.36772746  0.70162141  0.46472385    -0.08900
C568        C  0.40552547  0.67211022  0.47468844     0.30000
F569        F  0.40991941  0.64971241  0.51928887    -0.19400
H570        H  0.46852838  0.64355941  0.44676125     0.18300
H571        H  0.33687930  0.72024895  0.39253445     0.18300
F572        F  0.38371878  0.70541112  0.32101138    -0.19400
C573        C  0.14044111  0.71250341  0.34972359    -0.20900
C574        C  0.10841274  0.68176655  0.35017118    -0.08900
C575        C  0.10199726  0.66055227  0.39624330     0.30000
C576        C  0.12598248  0.67077638  0.44059320    -0.20900
C577        C  0.15497606  0.70529421  0.44494931    -0.08900
C578        C  0.16575772  0.72073654  0.39540131     0.30000
F579        F  0.20533187  0.73917419  0.38960186    -0.19400
H580        H  0.14831402  0.72788149  0.31337603     0.18300
H581        H  0.11821620  0.65154004  0.47190802     0.18300
F582        F  0.07140395  0.63050316  0.39952817    -0.19400
C583        C  0.15365460  0.70075998  0.09651599    -0.20900
C584        C  0.14148122  0.70673874  0.04317559    -0.08900
C585        C  0.09303567  0.70182358  0.03660295     0.30000
C586        C  0.06463488  0.69081867  0.07724173    -0.20900
C587        C  0.08049574  0.68353430  0.12703330    -0.08900
C588        C  0.12539072  0.68860232  0.13678221     0.29600
F589        F  0.14201596  0.68354259  0.18596826    -0.19400
H590        H  0.18667703  0.70616132  0.10829360     0.18300
H591        H  0.02925163  0.68843213  0.06941944     0.18300
F592        F  0.06901944  0.70651227  0.99180724    -0.19400
C593        C  0.26933322  0.90431954  0.05705446    -0.20900
C594        C  0.29558513  0.86812637  0.03903758    -0.08900
C595        C  0.34025048  0.88009629  0.05674977     0.30000
C596        C  0.34861013  0.89604845  0.10747572    -0.20900
C597        C  0.31597188  0.92096496  0.13123139    -0.08900
C598        C  0.27783613  0.92885718  0.10115388     0.30000
F599        F  0.24957977  0.96193931  0.11156837    -0.19400
H600        H  0.23858645  0.91536023  0.04174004     0.18300
H601        H  0.38272818  0.89831690  0.12105803     0.18300
F602        F  0.37040225  0.89694793  0.02467942    -0.19400
C603        C  0.28063364  0.88955578  0.35170195    -0.20900
C604        C  0.31612424  0.91564922  0.35906258    -0.08900
C605        C  0.34503924  0.90548292  0.39999155     0.30000
C606        C  0.33360138  0.87467544  0.43631943    -0.20900
C607        C  0.29195315  0.85495933  0.43977357    -0.08900
C608        C  0.26963352  0.85947427  0.38919453     0.30000
F609        F  0.23659009  0.83630683  0.37345390    -0.19400
H610        H  0.26062433  0.89243235  0.31644617     0.18300
H611        H  0.35988328  0.86160447  0.45762576     0.18300
F612        F  0.38504392  0.92369965  0.40403110    -0.19400
C613        C  0.30388205  0.63480215  0.35279953    -0.20900
C614        C  0.33034961  0.59755533  0.35545361    -0.08900
C615        C  0.35105601  0.58875867  0.40306896     0.30000
C616        C  0.34054805  0.61296671  0.44739007    -0.20900
C617        C  0.30596676  0.64619962  0.44860593    -0.08900
C618        C  0.29403732  0.65876957  0.39896857     0.30000
F619        F  0.27447159  0.69731073  0.39751487    -0.19400
H620        H  0.29047487  0.64507776  0.31542271     0.18300
H621        H  0.35916409  0.60312555  0.48157893     0.18300
F622        F  0.37965814  0.55515125  0.40801568    -0.19400
C623        C  0.29923358  0.56245595  0.07821179    -0.20900
C624        C  0.33297042  0.56948750  0.11465069    -0.08900
C625        C  0.35943269  0.60266717  0.10492009     0.30000
C626        C  0.33798045  0.63650147  0.07993748    -0.20900
C627        C  0.30449509  0.63447352  0.04096254    -0.08900
C628        C  0.29065718  0.59137446  0.03761268     0.30000
F629        F  0.27924960  0.57328921  0.99237512    -0.19400
H630        H  0.28208732  0.53342430  0.07878616     0.18300
H631        H  0.32404727  0.64803498  0.11540710     0.18300
F632        F  0.39516823  0.60886315  0.13614204    -0.19400
C633        C  0.15082945  0.87576577  0.43952219    -0.20900
C634        C  0.19633220  0.86876858  0.45885485    -0.08900
C635        C  0.21694912  0.90936644  0.44856921     0.30000
C636        C  0.20311702  0.93620024  0.40843511    -0.20900
C637        C  0.16706400  0.92767327  0.37741738    -0.08900
C638        C  0.13737001  0.90091543  0.39716411     0.30000
F639        F  0.09562765  0.89911896  0.37667388    -0.19400
H640        H  0.12326685  0.86110095  0.45392829     0.18300
H641        H  0.22403274  0.96181107  0.39796596     0.18300
F642        F  0.25693806  0.92284597  0.46381424    -0.19400
C643        C  0.20454008  0.87331929  0.14966570    -0.20900
C644        C  0.17311450  0.90660254  0.14512677    -0.08900
C645        C  0.15283389  0.91341790  0.09770797     0.30000
C646        C  0.16567188  0.88958735  0.05472445    -0.20900
C647        C  0.19943779  0.85529682  0.05442657    -0.08900
C648        C  0.21700162  0.84830398  0.10608690     0.30000
F649        F  0.24698399  0.81775172  0.11550691    -0.19400
H650        H  0.22132697  0.86776909  0.18675086     0.18300
H651        H  0.14719021  0.90154017  0.02257933     0.18300
F652        F  0.12312199  0.94613205  0.09113178    -0.19400
C653        C  0.18761907  0.61459056  0.35729789    -0.20900
C654        C  0.17635013  0.57642072  0.37199357    -0.08900
C655        C  0.18514308  0.56474323  0.42332474     0.30000
C656        C  0.20190074  0.59360179  0.45971721    -0.20900
C657        C  0.21214290  0.63692849  0.44967184    -0.08900
C658        C  0.20666664  0.64199832  0.39163029     0.30000
F659        F  0.21876893  0.67135944  0.35790047    -0.19400
H660        H  0.18419906  0.62255927  0.31583369     0.18300
H661        H  0.20752541  0.57832949  0.49629916     0.18300
F662        F  0.17855568  0.52508134  0.43863850    -0.19400
C663        C  0.22179467  0.61522156  0.14420152    -0.20900
C664        C  0.18658794  0.58774374  0.14074185    -0.08900
C665        C  0.15948181  0.59203434  0.09678718     0.30000
C666        C  0.17004726  0.61963953  0.05610044    -0.20900
C667        C  0.20998178  0.64392146  0.05273826    -0.08900
C668        C  0.23089117  0.64382267  0.10345897     0.30000
F669        F  0.25518288  0.67578967  0.11725154    -0.19400
H670        H  0.24115242  0.61629628  0.17999828     0.18300
H671        H  0.14701347  0.61779288  0.02545304     0.18300
F672        F  0.12315840  0.56831912  0.09156745    -0.19400
O673        O  0.13250952  0.95769652  0.69797481    -0.74000
O674        O  0.13472090  0.54275929  0.80478981    -0.74000
O675        O  0.13957647  0.54360753  0.69515529    -0.74100
O676        O  0.12780531  0.96140060  0.80563949    -0.74100
O677        O  0.20195875  0.95257869  0.80443923    -0.74000
O678        O  0.21322082  0.53721265  0.70331588    -0.74000
O679        O  0.20864361  0.53226912  0.80974322    -0.74000
O680        O  0.20657248  0.95245119  0.70208560    -0.74100
Ni681      Ni  0.13063841  0.50167765  0.75000621     1.25400
Ni682      Ni  0.20993809  0.99359438  0.75426870     1.25400
C683        C  0.16995314  0.93989388  0.68443161     0.88200
C684        C  0.17216337  0.54769763  0.82814637     0.88100
C685        C  0.17895883  0.55482911  0.68184469     0.88200
C686        C  0.16441862  0.94692095  0.82584153     0.88300
C687        C  0.22453077  0.67272027  0.99986552    -0.02000
C688        C  0.21507593  0.82877897  0.00067411    -0.02000
O689        O  0.29400974  0.55506792  0.79302307    -0.74000
O690        O  0.28874132  0.96267623  0.70039118    -0.74000
O691        O  0.28792612  0.97059296  0.80484637    -0.74100
O692        O  0.29580474  0.54261739  0.68720186    -0.74100
O693        O  0.36993286  0.53726556  0.68938927    -0.74000
O694        O  0.36161036  0.95897938  0.80425585    -0.74000
O695        O  0.36249880  0.95489147  0.69592736    -0.74000
O696        O  0.36772318  0.54498743  0.79903665    -0.74100
Ni697      Ni  0.28939324  0.00825485  0.74692539     1.25400
Ni698      Ni  0.36851523  0.99894047  0.74786768     1.25400
C699        C  0.33128061  0.56508821  0.81270745     0.88200
C700        C  0.32343429  0.94637960  0.67888570     0.88100
C701        C  0.32272832  0.95040984  0.82156583     0.88200
C702        C  0.33343608  0.54870186  0.66613648     0.88300
C703        C  0.28810749  0.67325346  0.00015537    -0.02000
C704        C  0.27880463  0.82886609  0.99466222    -0.02000
O705        O  0.44592328  0.71399784  0.72704192    -0.74000
O706        O  0.06197198  0.71005044  0.78625668    -0.74000
O707        O  0.03031546  0.71188097  0.68869376    -0.74100
O708        O  0.47915255  0.70787199  0.82502442    -0.74100
O709        O  0.47017903  0.63989761  0.81460604    -0.74000
O710        O  0.04401127  0.64362285  0.69191782    -0.74000
O711        O  0.05856904  0.64176833  0.79743012    -0.74000
O712        O  0.45278452  0.64705150  0.70716535    -0.74100
Ni713      Ni  0.00420453  0.71323509  0.75683933     1.25400
Ni714      Ni  0.00624638  0.63985587  0.75241715     1.25400
C715        C  0.43235202  0.68310435  0.70184530     0.88200
C716        C  0.07650318  0.67676789  0.80750406     0.88100
C717        C  0.04958926  0.67894949  0.67061802     0.88200
C718        C  0.46500352  0.67327020  0.84164044     0.88300
C719        C  0.18052582  0.71859925  0.99870789    -0.02000
C720        C  0.32647682  0.72011450  0.00519936    -0.02000
O721        O  0.03438534  0.84782556  0.81089058    -0.74000
O722        O  0.45459214  0.85153216  0.69191333    -0.74000
O723        O  0.44266860  0.84979984  0.79617747    -0.74100
O724        O  0.04573030  0.85003842  0.70577780    -0.74100
O725        O  0.05304220  0.78149859  0.71447998    -0.74000
O726        O  0.43993623  0.78149384  0.78322955    -0.74000
O727        O  0.46553637  0.78290868  0.68410594    -0.74000
O728        O  0.02639539  0.77945511  0.81380934    -0.74100
Ni729      Ni  0.99431140  0.85279438  0.75134331     1.25400
Ni730      Ni  0.99634161  0.77903589  0.74875489     1.25400
C731        C  0.04359709  0.81206395  0.83140599     0.88200
C732        C  0.44638233  0.81688514  0.66959132     0.88100
C733        C  0.42369669  0.81508725  0.80309310     0.88200
C734        C  0.06660066  0.81524295  0.69573199     0.88300
C735        C  0.17700006  0.78014528  0.00313713    -0.02000
C736        C  0.32074774  0.78091146  0.99412350    -0.02000
C737        C  0.34740575  0.80042799  0.84214592    -0.20900
C738        C  0.39263704  0.81019668  0.84637665    -0.08900
C739        C  0.41440790  0.80070006  0.89239875     0.30000
C740        C  0.39198932  0.78390148  0.93337788    -0.20900
C741        C  0.34518534  0.78582602  0.93823935    -0.08900
C742        C  0.32381167  0.78851937  0.88782954     0.30000
F743        F  0.28207349  0.77456748  0.88250813    -0.19400
H744        H  0.33089392  0.80108104  0.80441202     0.18300
H745        H  0.41305132  0.76880658  0.96128016     0.18300
F746        F  0.45912666  0.80367287  0.89621856    -0.19400
C747        C  0.43017399  0.81973969  0.57652645    -0.20900
C748        C  0.41476216  0.81486319  0.62647082    -0.08900
C749        C  0.37017524  0.80568365  0.63405304     0.30000
C750        C  0.34243285  0.79905049  0.59053338    -0.20900
C751        C  0.35692828  0.79825634  0.53786560    -0.08900
C752        C  0.40208502  0.81524707  0.53370602     0.30000
F753        F  0.41986591  0.83548722  0.49280019    -0.19400
H754        H  0.46400204  0.82979868  0.57054819     0.18300
H755        H  0.30954128  0.79087227  0.59738905     0.18300
F756        F  0.35345383  0.80248817  0.68320519    -0.19400
C757        C  0.06135464  0.79091109  0.92184923    -0.20900
C758        C  0.07547561  0.80648751  0.87451341    -0.08900
C759        C  0.12104728  0.80914466  0.86633105     0.30000
C760        C  0.15085412  0.79988952  0.90750111    -0.20900
C761        C  0.13858040  0.78871571  0.95873952    -0.08900
C762        C  0.09087366  0.78303925  0.96300488     0.30000
F763        F  0.06866753  0.77560595  0.00770072    -0.19400
H764        H  0.02670720  0.78526134  0.92839460     0.18300
H765        H  0.18459928  0.80292375  0.90108944     0.18300
F766        F  0.13703587  0.82092748  0.81911267    -0.19400
C767        C  0.16484257  0.78132670  0.60775950    -0.20900
C768        C  0.14817887  0.79197585  0.55723254    -0.08900
C769        C  0.11069673  0.82226306  0.56200201     0.30000
C770        C  0.08767028  0.83071054  0.60773786    -0.20900
C771        C  0.10039843  0.81259828  0.65396852    -0.08900
C772        C  0.14026102  0.78826909  0.65479897     0.30000
F773        F  0.15611167  0.77224655  0.70058227    -0.19400
H774        H  0.19789121  0.76729412  0.61069373     0.18300
H775        H  0.05790393  0.85112096  0.60612832     0.18300
F776        F  0.09308779  0.84591300  0.52360950    -0.19400
C777        C  0.33234501  0.71809188  0.61260919    -0.20900
C778        C  0.35313785  0.71684157  0.56188946    -0.08900
C779        C  0.40119589  0.71822285  0.56755156     0.30000
C780        C  0.42392301  0.70258515  0.61110247    -0.20900
C781        C  0.40198809  0.69356204  0.65692882    -0.08900
C782        C  0.35651530  0.70707396  0.65973042     0.30000
F783        F  0.33506841  0.70778879  0.70647649    -0.19400
H784        H  0.29783383  0.72800520  0.61573409     0.18300
H785        H  0.46009824  0.70033702  0.60992585     0.18300
F786        F  0.42872490  0.73296064  0.53095837    -0.19400
C787        C  0.43911843  0.66247872  0.93633656    -0.20900
C788        C  0.43304735  0.67575861  0.88458882    -0.08900
C789        C  0.39373738  0.69547453  0.87159995     0.30000
C790        C  0.36401517  0.70681278  0.90978781    -0.20900
C791        C  0.36768075  0.70160883  0.96462303    -0.08900
C792        C  0.40547388  0.67210636  0.97461391     0.30000
F793        F  0.40985465  0.64970142  0.01920037    -0.19400
H794        H  0.46852437  0.64361442  0.94678140     0.18300
H795        H  0.33683886  0.72020952  0.89237133     0.18300
F796        F  0.38368463  0.70517649  0.82087436    -0.19400
C797        C  0.14056289  0.71240939  0.84987573    -0.20900
C798        C  0.10852365  0.68168451  0.85037231    -0.08900
C799        C  0.10202662  0.66054486  0.89647650     0.30000
C800        C  0.12605739  0.67074005  0.94077760    -0.20900
C801        C  0.15506532  0.70524563  0.94507353    -0.08900
C802        C  0.16587516  0.72066169  0.89553439     0.30000
F803        F  0.20545127  0.73908764  0.88972814    -0.19400
H804        H  0.14845721  0.72774563  0.81350561     0.18300
H805        H  0.11826375  0.65154845  0.97213791     0.18300
F806        F  0.07128260  0.63063711  0.89985423    -0.19400
C807        C  0.15371414  0.70085473  0.59647482    -0.20900
C808        C  0.14146865  0.70677140  0.54314349    -0.08900
C809        C  0.09305086  0.70165613  0.53663939     0.30000
C810        C  0.06474952  0.69054278  0.57733480    -0.20900
C811        C  0.08069691  0.68330403  0.62710664    -0.08900
C812        C  0.12557598  0.68851178  0.63677181     0.29600
F813        F  0.14232164  0.68329953  0.68588210    -0.19400
H814        H  0.18674321  0.70631445  0.60816773     0.18300
H815        H  0.02937011  0.68805005  0.56957815     0.18300
F816        F  0.06895572  0.70634433  0.49190029    -0.19400
C817        C  0.26933190  0.90439154  0.55692416    -0.20900
C818        C  0.29555848  0.86815636  0.53896220    -0.08900
C819        C  0.34021400  0.88006837  0.55670454     0.30000
C820        C  0.34854729  0.89596717  0.60745185    -0.20900
C821        C  0.31593234  0.92093888  0.63115308    -0.08900
C822        C  0.27784294  0.92892121  0.60102449     0.30000
F823        F  0.24962770  0.96203789  0.61143152    -0.19400
H824        H  0.23858042  0.91544054  0.54162039     0.18300
H825        H  0.38265549  0.89818096  0.62108607     0.18300
F826        F  0.37033748  0.89699246  0.52465892    -0.19400
C827        C  0.28071580  0.88945411  0.85172243    -0.20900
C828        C  0.31618241  0.91556962  0.85909938    -0.08900
C829        C  0.34503386  0.90548948  0.90012295     0.30000
C830        C  0.33360694  0.87465240  0.93641331    -0.20900
C831        C  0.29196449  0.85492987  0.93984183    -0.08900
C832        C  0.26966560  0.85942805  0.88925678     0.30000
F833        F  0.23657128  0.83631105  0.87355725    -0.19400
H834        H  0.26072640  0.89230707  0.81644802     0.18300
H835        H  0.35989646  0.86155340  0.95769343     0.18300
F836        F  0.38495495  0.92383634  0.90431796    -0.19400
C837        C  0.30382828  0.63468921  0.85275782    -0.20900
C838        C  0.33033842  0.59746985  0.85537416    -0.08900
C839        C  0.35112124  0.58871458  0.90295840     0.30000
C840        C  0.34055928  0.61286765  0.94732632    -0.20900
C841        C  0.30598121  0.64610957  0.94856409    -0.08900
C842        C  0.29402800  0.65866641  0.89893353     0.30000
F843        F  0.27446488  0.69720401  0.89749443    -0.19400
H844        H  0.29037581  0.64494938  0.81539602     0.18300
H845        H  0.35918729  0.60302358  0.98150476     0.18300
F846        F  0.37990793  0.55523140  0.90780266    -0.19400
C847        C  0.29916005  0.56241448  0.57810015    -0.20900
C848        C  0.33284517  0.56943189  0.61460922    -0.08900
C849        C  0.35925815  0.60267113  0.60503007     0.30000
C850        C  0.33782057  0.63650127  0.58002744    -0.20900
C851        C  0.30440415  0.63448817  0.54098254    -0.08900
C852        C  0.29059570  0.59137636  0.53754362     0.30000
F853        F  0.27927862  0.57330848  0.49225335    -0.19400
H854        H  0.28206169  0.53335637  0.57857327     0.18300
H855        H  0.32381700  0.64798615  0.61548928     0.18300
F856        F  0.39485499  0.60890762  0.63645301    -0.19400
C857        C  0.15079534  0.87569482  0.93958512    -0.20900
C858        C  0.19630347  0.86868867  0.95891750    -0.08900
C859        C  0.21691542  0.90926933  0.94858334     0.30000
C860        C  0.20315788  0.93600951  0.90831208    -0.20900
C861        C  0.16708924  0.92748363  0.87731296    -0.08900
C862        C  0.13735067  0.90080242  0.89716888     0.30000
F863        F  0.09558111  0.89904002  0.87674337    -0.19400
H864        H  0.12322245  0.86104612  0.95400328     0.18300
H865        H  0.22409858  0.96158972  0.89780177     0.18300
F866        F  0.25685336  0.92278795  0.96393026    -0.19400
C867        C  0.20455964  0.87333965  0.64955780    -0.20900
C868        C  0.17307221  0.90657292  0.64506065    -0.08900
C869        C  0.15277964  0.91340853  0.59765609     0.30000
C870        C  0.16565159  0.88963277  0.55464285    -0.20900
C871        C  0.19943926  0.85535935  0.55432296    -0.08900
C872        C  0.21703761  0.84836934  0.60595438     0.30000
F873        F  0.24709588  0.81787262  0.61529340    -0.19400
H874        H  0.22137861  0.86779792  0.68662484     0.18300
H875        H  0.14715256  0.90158934  0.52251239     0.18300
F876        F  0.12300589  0.94608333  0.59113741    -0.19400
C877        C  0.18748108  0.61452681  0.85729759    -0.20900
C878        C  0.17619008  0.57635299  0.87196208    -0.08900
C879        C  0.18508846  0.56464635  0.92327117     0.30000
C880        C  0.20186926  0.59349864  0.95969083    -0.20900
C881        C  0.21214273  0.63682989  0.94966729    -0.08900
C882        C  0.20663437  0.64189397  0.89162009     0.30000
F883        F  0.21876948  0.67123487  0.85787439    -0.19400
H884        H  0.18401966  0.62252241  0.81584636     0.18300
H885        H  0.20748969  0.57821887  0.99626886     0.18300
F886        F  0.17861053  0.52494911  0.93852119    -0.19400
C887        C  0.22162073  0.61515592  0.64412431    -0.20900
C888        C  0.18639277  0.58769643  0.64061292    -0.08900
C889        C  0.15930773  0.59204929  0.59664089     0.30000
C890        C  0.16991573  0.61970153  0.55601483    -0.20900
C891        C  0.20988722  0.64395312  0.55270049    -0.08900
C892        C  0.23076175  0.64379824  0.60343752     0.30000
F893        F  0.25504436  0.67576208  0.61730717    -0.19400
H894        H  0.24095858  0.61619070  0.67993772     0.18300
H895        H  0.14690183  0.61789741  0.52535121     0.18300
F896        F  0.12296562  0.56836610  0.59133759    -0.19400
O897        O  0.63271516  0.45762792  0.19807729    -0.74000
O898        O  0.63481041  0.04290382  0.30474096    -0.74000
O899        O  0.63967105  0.04376037  0.19515826    -0.74100
O900        O  0.62795604  0.46130309  0.30571771    -0.74100
O901        O  0.70211886  0.45259558  0.30465026    -0.74000
O902        O  0.71332241  0.03717164  0.20317318    -0.74000
O903        O  0.70874354  0.03240872  0.30956563    -0.74000
O904        O  0.70676228  0.45235835  0.20230283    -0.74100
Ni905      Ni  0.63067301  0.00184315  0.24996627     1.25400
Ni906      Ni  0.71008291  0.49357341  0.25444885     1.25400
C907        C  0.67016117  0.43979307  0.18460229     0.88200
C908        C  0.67228504  0.04784449  0.32801027     0.88100
C909        C  0.67907303  0.05486912  0.18178336     0.88200
C910        C  0.66456627  0.44690111  0.32598811     0.88300
C911        C  0.72469775  0.17268121  0.49976267    -0.02000
C912        C  0.71516496  0.32870577  0.50062253    -0.02000
O913        O  0.79415449  0.05519265  0.29314307    -0.74000
O914        O  0.78877623  0.46273273  0.20039229    -0.74000
O915        O  0.78786913  0.47061635  0.30484773    -0.74100
O916        O  0.79594644  0.04283824  0.18734537    -0.74100
O917        O  0.87006860  0.03722156  0.18947430    -0.74000
O918        O  0.86155407  0.45906006  0.30433491    -0.74000
O919        O  0.86252684  0.45494084  0.19602162    -0.74000
O920        O  0.86785412  0.04496001  0.29911072    -0.74100
Ni921      Ni  0.78935850  0.50830300  0.24694444     1.25400
Ni922      Ni  0.86847539  0.49902436  0.24795496     1.25400
C923        C  0.83146167  0.06513508  0.31279797     0.88200
C924        C  0.82347751  0.44641024  0.17894463     0.88100
C925        C  0.82266876  0.45043921  0.32158136     0.88200
C926        C  0.83359921  0.04876425  0.16624703     0.88300
C927        C  0.78828850  0.17320433  0.50019882    -0.02000
C928        C  0.77889112  0.32879782  0.49464141    -0.02000
O929        O  0.94588999  0.21391988  0.22709710    -0.74000
O930        O  0.56207951  0.20992983  0.28596865    -0.74000
O931        O  0.53021782  0.21179117  0.18847694    -0.74100
O932        O  0.97938825  0.20777182  0.32499172    -0.74100
O933        O  0.97033134  0.13981876  0.31453921    -0.74000
O934        O  0.54399641  0.14354867  0.19170756    -0.74000
O935        O  0.55865245  0.14165309  0.29717241    -0.74000
O936        O  0.95278104  0.14700455  0.20710427    -0.74100
Ni937      Ni  0.50423940  0.21311722  0.25670094     1.25400
Ni938      Ni  0.50627416  0.13975231  0.25223733     1.25400
C939        C  0.93232192  0.18305095  0.20184480     0.88200
C940        C  0.57663734  0.17664149  0.30719349     0.88100
C941        C  0.54955217  0.17888273  0.17041985     0.88200
C942        C  0.96524675  0.17317380  0.34163045     0.88300
C943        C  0.68065117  0.21852072  0.49850180    -0.02000
C944        C  0.82669178  0.22003865  0.50526342    -0.02000
O945        O  0.53437535  0.34765193  0.31091898    -0.74000
O946        O  0.95451229  0.35142794  0.19198359    -0.74000
O947        O  0.94265494  0.34972294  0.29623729    -0.74100
O948        O  0.54568431  0.34985820  0.20580390    -0.74100
O949        O  0.55292939  0.28131762  0.21451836    -0.74000
O950        O  0.93986995  0.28141482  0.28330438    -0.74000
O951        O  0.96541714  0.28280035  0.18419201    -0.74000
O952        O  0.52634137  0.27928395  0.31385403    -0.74100
Ni953      Ni  0.49428808  0.35265750  0.25139359     1.25400
Ni954      Ni  0.49624575  0.27889521  0.24883043     1.25400
C955        C  0.54357425  0.31188516  0.33142789     0.88200
C956        C  0.94627772  0.31678090  0.16968043     0.88100
C957        C  0.92366863  0.31502228  0.30316353     0.88200
C958        C  0.56651559  0.31504573  0.19575715     0.88300
C959        C  0.67710474  0.28005827  0.50300736    -0.02000
C960        C  0.82084348  0.28083280  0.49417863    -0.02000
C961        C  0.84742856  0.30039741  0.34225227    -0.20900
C962        C  0.89265967  0.31014816  0.34646424    -0.08900
C963        C  0.91447487  0.30059935  0.39244245     0.30000
C964        C  0.89206704  0.28386745  0.43345782    -0.20900
C965        C  0.84526545  0.28575772  0.43831992    -0.08900
C966        C  0.82387010  0.28844497  0.38792896     0.30000
F967        F  0.78214363  0.27448034  0.38262582    -0.19400
H968        H  0.83089741  0.30107930  0.30453004     0.18300
H969        H  0.91313675  0.26877520  0.46134990     0.18300
F970        F  0.95921872  0.30340998  0.39616529    -0.19400
C971        C  0.93018263  0.31963447  0.07661618    -0.20900
C972        C  0.91470114  0.31476799  0.12653236    -0.08900
C973        C  0.87010771  0.30558638  0.13404278     0.30000
C974        C  0.84243781  0.29894213  0.09047511    -0.20900
C975        C  0.85699289  0.29814897  0.03784667    -0.08900
C976        C  0.90215067  0.31513844  0.03375116     0.30000
F977        F  0.91996859  0.33539100  0.99287448    -0.19400
H978        H  0.96401690  0.32969623  0.07069656     0.18300
H979        H  0.80953698  0.29078371  0.09723316     0.18300
F980        F  0.85330013  0.30241652  0.18315735    -0.19400
C981        C  0.56140937  0.29070562  0.42183596    -0.20900
C982        C  0.57548505  0.30630085  0.37449070    -0.08900
C983        C  0.62104570  0.30897882  0.36625098     0.30000
C984        C  0.65088477  0.29979532  0.40740277    -0.20900
C985        C  0.63866353  0.28859643  0.45863978    -0.08900
C986        C  0.59097552  0.28283412  0.46294649     0.30000
F987        F  0.56883690  0.27532572  0.50766590    -0.19400
H988        H  0.52676795  0.28502442  0.42840934     0.18300
H989        H  0.68461119  0.30288739  0.40096552     0.18300
F990        F  0.63699927  0.32062367  0.31895865    -0.19400
C991        C  0.66483119  0.28115860  0.10786583    -0.20900
C992        C  0.64821641  0.29178824  0.05729691    -0.08900
C993        C  0.61068266  0.32201971  0.06202908     0.30000
C994        C  0.58756849  0.33041086  0.10772252    -0.20900
C995        C  0.60030573  0.31236731  0.15398770    -0.08900
C996        C  0.64021347  0.28811416  0.15488404     0.30000
F997        F  0.65607718  0.27219506  0.20071818    -0.19400
H998        H  0.69787085  0.26712735  0.11086066     0.18300
H999        H  0.55776116  0.35076626  0.10606673     0.18300
F1000       F  0.59310219  0.34568390  0.02364114    -0.19400
C1001       C  0.83239713  0.21801284  0.11242129    -0.20900
C1002       C  0.85324208  0.21673106  0.06173404    -0.08900
C1003       C  0.90129469  0.21806271  0.06744014     0.30000
C1004       C  0.92396619  0.20246385  0.11105440    -0.20900
C1005       C  0.90198797  0.19353291  0.15688938    -0.08900
C1006       C  0.85651214  0.20706310  0.15960242     0.30000
F1007       F  0.83499209  0.20783126  0.20630323    -0.19400
H1008       H  0.79788807  0.22794591  0.11547520     0.18300
H1009       H  0.96014125  0.20017085  0.10991457     0.18300
F1010       F  0.92886795  0.23276064  0.03086833    -0.19400
C1011       C  0.93933887  0.16234587  0.43636556    -0.20900
C1012       C  0.93332383  0.17569394  0.38462701    -0.08900
C1013       C  0.89407334  0.19551707  0.37166130     0.30000
C1014       C  0.86431814  0.20679255  0.40982798    -0.20900
C1015       C  0.86792294  0.20154776  0.46467002    -0.08900
C1016       C  0.90569695  0.17201394  0.47465494     0.30000
F1017       F  0.91004676  0.14961357  0.51925287    -0.19400
H1018       H  0.96870272  0.14341929  0.44679893     0.18300
H1019       H  0.83717013  0.22018200  0.39233645     0.18300
F1020       F  0.88409751  0.20538130  0.32096084    -0.19400
C1021       C  0.64073620  0.21230674  0.34954633    -0.20900
C1022       C  0.60873959  0.18153574  0.35000945    -0.08900
C1023       C  0.60232376  0.16034684  0.39607706     0.30000
C1024       C  0.62624100  0.17059377  0.44049290    -0.20900
C1025       C  0.65522437  0.20516788  0.44478184    -0.08900
C1026       C  0.66601717  0.22060097  0.39523496     0.30000
F1027       F  0.70555531  0.23909835  0.38943062    -0.19400
H1028       H  0.64859724  0.22767595  0.31319098     0.18300
H1029       H  0.61832867  0.15148953  0.47170793     0.18300
F1030       F  0.57175298  0.13027809  0.39940283    -0.19400
C1031       C  0.65381217  0.20067931  0.09641843    -0.20900
C1032       C  0.64161750  0.20660776  0.04307570    -0.08900
C1033       C  0.59319521  0.20154984  0.03651736     0.30000
C1034       C  0.56483543  0.19049747  0.07717785    -0.20900
C1035       C  0.58072022  0.18326466  0.12697084    -0.08900
C1036       C  0.62560461  0.18842389  0.13669643     0.29600
F1037       F  0.64228083  0.18330310  0.18585218    -0.19400
H1038       H  0.68683017  0.20613679  0.10815600     0.18300
H1039       H  0.52945888  0.18803671  0.06937228     0.18300
F1040       F  0.56914615  0.20620539  0.99174259    -0.19400
C1041       C  0.76936810  0.40424740  0.05705627    -0.20900
C1042       C  0.79562898  0.36804149  0.03907004    -0.08900
C1043       C  0.84028057  0.37997513  0.05684290     0.30000
C1044       C  0.84860017  0.39591213  0.10758025    -0.20900
C1045       C  0.81598666  0.42090758  0.13124471    -0.08900
C1046       C  0.77788677  0.42883318  0.10111012     0.30000
F1047       F  0.74966437  0.46195638  0.11145915    -0.19400
H1048       H  0.73859267  0.41525127  0.04176777     0.18300
H1049       H  0.88270545  0.39813702  0.12122157     0.18300
F1050       F  0.87044693  0.39685280  0.02481590    -0.19400
C1051       C  0.78065716  0.38945931  0.35173795    -0.20900
C1052       C  0.81613961  0.41556246  0.35907573    -0.08900
C1053       C  0.84509230  0.40538037  0.39996487     0.30000
C1054       C  0.83368552  0.37456639  0.43630023    -0.20900
C1055       C  0.79203075  0.35486393  0.43980011    -0.08900
C1056       C  0.76968856  0.35937573  0.38923687     0.30000
F1057       F  0.73665803  0.33619478  0.37350929    -0.19400
H1058       H  0.76063299  0.39232497  0.31649304     0.18300
H1059       H  0.86000485  0.36147101  0.45754643     0.18300
F1060       F  0.88511608  0.42356885  0.40393508    -0.19400
C1061       C  0.80420550  0.13479202  0.35284096    -0.20900
C1062       C  0.83060883  0.09750651  0.35546257    -0.08900
C1063       C  0.85129121  0.08864849  0.40307559     0.30000
C1064       C  0.84075804  0.11280488  0.44743820    -0.20900
C1065       C  0.80621813  0.14607867  0.44865261    -0.08900
C1066       C  0.79434299  0.15870964  0.39904938     0.30000
F1067       F  0.77475867  0.19725440  0.39771593    -0.19400
H1068       H  0.79083701  0.14511655  0.31546648     0.18300
H1069       H  0.85934350  0.10292175  0.48163298     0.18300
F1070       F  0.87990459  0.05504316  0.40796140    -0.19400
C1071       C  0.79933434  0.06234365  0.07822185    -0.20900
C1072       C  0.83305571  0.06938323  0.11467027    -0.08900
C1073       C  0.85948989  0.10258892  0.10500350     0.30000
C1074       C  0.83803558  0.13640641  0.08000123    -0.20900
C1075       C  0.80459145  0.13437522  0.04099209    -0.08900
C1076       C  0.79074921  0.09126865  0.03763743     0.30000
F1077       F  0.77934992  0.07317139  0.99240369    -0.19400
H1078       H  0.78220167  0.03330463  0.07878449     0.18300
H1079       H  0.82402443  0.14787411  0.11547358     0.18300
F1080       F  0.89511741  0.10883593  0.13637353    -0.19400
C1081       C  0.65091946  0.37559007  0.43953086    -0.20900
C1082       C  0.69640791  0.36862317  0.45890758    -0.08900
C1083       C  0.71700649  0.40922917  0.44866943     0.30000
C1084       C  0.70319921  0.43605225  0.40851644    -0.20900
C1085       C  0.66718636  0.42749613  0.37744941    -0.08900
C1086       C  0.63749134  0.40071843  0.39714805     0.30000
F1087       F  0.59577557  0.39888512  0.37658937    -0.19400
H1088       H  0.62334692  0.36091569  0.45388072     0.18300
H1089       H  0.72410585  0.46167615  0.39807745     0.18300
F1090       F  0.75697628  0.42271071  0.46396248    -0.19400
C1091       C  0.70477270  0.37318767  0.14973046    -0.20900
C1092       C  0.67328424  0.40642695  0.14525404    -0.08900
C1093       C  0.65285972  0.41315788  0.09790143     0.30000
C1094       C  0.66569278  0.38936668  0.05487809    -0.20900
C1095       C  0.69952902  0.35514490  0.05450681    -0.08900
C1096       C  0.71715816  0.34815663  0.10613453     0.30000
F1097       F  0.74711861  0.31758548  0.11550130    -0.19400
H1098       H  0.72163813  0.36766604  0.18677323     0.18300
H1099       H  0.64710807  0.40124764  0.02277566     0.18300
F1100       F  0.62297032  0.44574555  0.09143117    -0.19400
C1101       C  0.68797565  0.11457552  0.35707785    -0.20900
C1102       C  0.67638341  0.07649691  0.37177292    -0.08900
C1103       C  0.68507701  0.06477568  0.42311034     0.30000
C1104       C  0.70201451  0.09353089  0.45951471    -0.20900
C1105       C  0.71238796  0.13683609  0.44952873    -0.08900
C1106       C  0.70702766  0.14193163  0.39147327     0.30000
F1107       F  0.71919283  0.17131618  0.35780057    -0.19400
H1108       H  0.68470013  0.12254168  0.31559849     0.18300
H1109       H  0.70760637  0.07820147  0.49606372     0.18300
F1110       F  0.67827386  0.02514625  0.43840064    -0.19400
C1111       C  0.72175423  0.11513209  0.14405970    -0.20900
C1112       C  0.68653041  0.08768376  0.14054757    -0.08900
C1113       C  0.65947883  0.09196179  0.09655290     0.30000
C1114       C  0.67010997  0.11955437  0.05588925    -0.20900
C1115       C  0.71006395  0.14382428  0.05259421    -0.08900
C1116       C  0.73091772  0.14371671  0.10333838     0.30000
F1117       F  0.75521810  0.17566867  0.11716815    -0.19400
H1118       H  0.74107081  0.11619979  0.17988666     0.18300
H1119       H  0.64711207  0.11769496  0.02521238     0.18300
F1120       F  0.62315377  0.06825297  0.09127416    -0.19400
O1121       O  0.63262454  0.45764242  0.69804975    -0.74000
O1122       O  0.63478846  0.04295301  0.80469547    -0.74000
O1123       O  0.63964399  0.04375320  0.69511345    -0.74100
O1124       O  0.62787634  0.46128273  0.80572584    -0.74100
O1125       O  0.70203268  0.45249325  0.80456400    -0.74000
O1126       O  0.71328682  0.03722336  0.70325943    -0.74000
O1127       O  0.70869779  0.03230584  0.80964759    -0.74000
O1128       O  0.70668282  0.45241096  0.70220033    -0.74100
Ni1129     Ni  0.63061754  0.00186495  0.74996523     1.25400
Ni1130     Ni  0.71000738  0.49354376  0.75444399     1.25400
C1131       C  0.67007446  0.43984688  0.68450720     0.88200
C1132       C  0.67225078  0.04782048  0.82802526     0.88100
C1133       C  0.67905340  0.05489246  0.68180070     0.88200
C1134       C  0.66448902  0.44683498  0.82595482     0.88300
C1135       C  0.72467730  0.17265375  0.99978154    -0.02000
C1136       C  0.71516265  0.32868782  0.00071016    -0.02000
O1137       O  0.79413164  0.05509292  0.79309252    -0.74000
O1138       O  0.78886580  0.46253426  0.70046054    -0.74000
O1139       O  0.78796584  0.47057491  0.80488639    -0.74100
O1140       O  0.79590142  0.04267924  0.68726733    -0.74100
O1141       O  0.87002993  0.03729192  0.68948725    -0.74000
O1142       O  0.86166114  0.45905911  0.80429031    -0.74000
O1143       O  0.86263517  0.45499915  0.69591659    -0.74000
O1144       O  0.86783528  0.04490667  0.79912494    -0.74100
Ni1145     Ni  0.78936924  0.50817746  0.74690754     1.25400
Ni1146     Ni  0.86849946  0.49905635  0.74790217     1.25400
C1147       C  0.83141862  0.06503940  0.81280125     0.88200
C1148       C  0.82359673  0.44635524  0.67890814     0.88100
C1149       C  0.82279375  0.45043887  0.82161268     0.88200
C1150       C  0.83354697  0.04873442  0.66621731     0.88300
C1151       C  0.78825826  0.17316273  0.00016460    -0.02000
C1152       C  0.77887884  0.32878925  0.99467251    -0.02000
O1153       O  0.94617435  0.21385040  0.72703237    -0.74000
O1154       O  0.56219238  0.20995099  0.78592915    -0.74000
O1155       O  0.53036637  0.21173079  0.68839277    -0.74100
O1156       O  0.97958067  0.20776269  0.82493535    -0.74100
O1157       O  0.97043537  0.13981882  0.81453362    -0.74000
O1158       O  0.54413760  0.14348454  0.69168922    -0.74000
O1159       O  0.55877876  0.14167972  0.79719944    -0.74000
O1160       O  0.95300727  0.14691950  0.70708821    -0.74100
Ni1161     Ni  0.50437450  0.21310674  0.75660908     1.25400
Ni1162     Ni  0.50642320  0.13973088  0.75223887     1.25400
C1163       C  0.93257915  0.18297824  0.70181158     0.88200
C1164       C  0.57672607  0.17668390  0.80722446     0.88100
C1165       C  0.54964272  0.17879905  0.67032096     0.88200
C1166       C  0.96533713  0.17320316  0.84156744     0.88300
C1167       C  0.68065027  0.21850860  0.99860787    -0.02000
C1168       C  0.82663353  0.22002166  0.00513299    -0.02000
O1169       O  0.53462232  0.34767742  0.81082414    -0.74000
O1170       O  0.95461532  0.35143568  0.69202763    -0.74000
O1171       O  0.94282928  0.34966910  0.79628622    -0.74100
O1172       O  0.54580893  0.34984177  0.70570297    -0.74100
O1173       O  0.55306395  0.28130321  0.71445741    -0.74000
O1174       O  0.94003031  0.28135730  0.78337936    -0.74000
O1175       O  0.96543524  0.28280258  0.68420094    -0.74000
O1176       O  0.52652989  0.27932103  0.81382217    -0.74100
Ni1177     Ni  0.49445974  0.35266877  0.75136382     1.25400
Ni1178     Ni  0.49639470  0.27891120  0.74881726     1.25400
C1179       C  0.54380962  0.31191657  0.83135209     0.88200
C1180       C  0.94632721  0.31680509  0.66971244     0.88100
C1181       C  0.92383289  0.31497687  0.80322334     0.88200
C1182       C  0.56664052  0.31502654  0.69566584     0.88300
C1183       C  0.67710356  0.28004478  0.00313039    -0.02000
C1184       C  0.82082873  0.28082775  0.99412445    -0.02000
C1185       C  0.84752748  0.30043242  0.84222862    -0.20900
C1186       C  0.89276961  0.31015271  0.84648688    -0.08900
C1187       C  0.91452955  0.30065240  0.89250997     0.30000
C1188       C  0.89208391  0.28386840  0.93346063    -0.20900
C1189       C  0.84527754  0.28578137  0.93828403    -0.08900
C1190       C  0.82391423  0.28850941  0.88788435     0.30000
F1191       F  0.78217552  0.27456869  0.88253948    -0.19400
H1192       H  0.83103090  0.30110798  0.80448590     0.18300
H1193       H  0.91313168  0.26876184  0.96136094     0.18300
F1194       F  0.95926080  0.30356685  0.89634664    -0.19400
C1195       C  0.93020908  0.31962459  0.57663665    -0.20900
C1196       C  0.91472771  0.31483119  0.62656908    -0.08900
C1197       C  0.87011678  0.30571339  0.63409967     0.30000
C1198       C  0.84243707  0.29900793  0.59054618    -0.20900
C1199       C  0.85699138  0.29817682  0.53790415    -0.08900
C1200       C  0.90215689  0.31513910  0.53378387     0.30000
F1201       F  0.91997191  0.33536558  0.49288705    -0.19400
H1202       H  0.96406181  0.32962829  0.57068952     0.18300
H1203       H  0.80954479  0.29081438  0.59734912     0.18300
F1204       F  0.85330728  0.30266530  0.68322839    -0.19400
C1205       C  0.56155737  0.29067520  0.92173382    -0.20900
C1206       C  0.57569190  0.30633328  0.87444960    -0.08900
C1207       C  0.62126772  0.30906763  0.86632396     0.30000
C1208       C  0.65104440  0.29983780  0.90753051    -0.20900
C1209       C  0.63873059  0.28860786  0.95871840    -0.08900
C1210       C  0.59104750  0.28281027  0.96290911     0.30000
F1211       F  0.56883145  0.27530171  0.00757055    -0.19400
H1212       H  0.52691837  0.28494429  0.92821098     0.18300
H1213       H  0.68479800  0.30289040  0.90120546     0.18300
F1214       F  0.63729184  0.32082961  0.81911534    -0.19400
C1215       C  0.66491955  0.28114508  0.60770951    -0.20900
C1216       C  0.64827278  0.29180585  0.55717764    -0.08900
C1217       C  0.61078851  0.32208591  0.56194991     0.30000
C1218       C  0.58771211  0.33047683  0.60766407    -0.20900
C1219       C  0.60042550  0.31234974  0.65388929    -0.08900
C1220       C  0.64031488  0.28806120  0.65473952     0.30000
F1221       F  0.65618460  0.27208018  0.70053618    -0.19400
H1222       H  0.69796818  0.26711756  0.61065503     0.18300
H1223       H  0.55793716  0.35087569  0.60604690     0.18300
F1224       F  0.59320890  0.34576901  0.52357737    -0.19400
C1225       C  0.83256443  0.21802823  0.61260416    -0.20900
C1226       C  0.85333917  0.21676643  0.56187104    -0.08900
C1227       C  0.90139889  0.21813510  0.56752257     0.30000
C1228       C  0.92412923  0.20247656  0.61106553    -0.20900
C1229       C  0.90220467  0.19346894  0.65690668    -0.08900
C1230       C  0.85674363  0.20702011  0.65972305     0.30000
F1231       F  0.83531233  0.20778228  0.70647973    -0.19400
H1232       H  0.79805596  0.22793891  0.61575169     0.18300
H1233       H  0.96030331  0.20019926  0.60986981     0.18300
F1234       F  0.92892973  0.23286203  0.53092423    -0.19400
C1235       C  0.93927472  0.16238281  0.93622452    -0.20900
C1236       C  0.93334435  0.17578466  0.88450161    -0.08900
C1237       C  0.89409677  0.19560712  0.87148075     0.30000
C1238       C  0.86425724  0.20682293  0.90960995    -0.20900
C1239       C  0.86783671  0.20155785  0.96447725    -0.08900
C1240       C  0.90559320  0.17202261  0.97446697     0.30000
F1241       F  0.90988635  0.14959095  0.01904077    -0.19400
H1242       H  0.96861564  0.14343463  0.94668343     0.18300
H1243       H  0.83711316  0.22020790  0.89206033     0.18300
F1244       F  0.88419426  0.20548765  0.82076640    -0.19400
C1245       C  0.64075723  0.21236919  0.84967676    -0.20900
C1246       C  0.60874263  0.18161860  0.85011639    -0.08900
C1247       C  0.60227188  0.16043602  0.89619527     0.30000
C1248       C  0.62623575  0.17066268  0.94054062    -0.20900
C1249       C  0.65521444  0.20518034  0.94490895    -0.08900
C1250       C  0.66603842  0.22062071  0.89536984     0.30000
F1251       F  0.70561018  0.23906728  0.88959601    -0.19400
H1252       H  0.64865462  0.22773280  0.81332687     0.18300
H1253       H  0.61845258  0.15143568  0.97185849     0.18300
F1254       F  0.57165610  0.13040758  0.89948789    -0.19400
C1255       C  0.65379095  0.20069123  0.59627483    -0.20900
C1256       C  0.64160190  0.20662055  0.54294038    -0.08900
C1257       C  0.59318379  0.20153684  0.53636860     0.30000
C1258       C  0.56483551  0.19042887  0.57702412    -0.20900
C1259       C  0.58074784  0.18315489  0.62680891    -0.08900
C1260       C  0.62562009  0.18833814  0.63652134     0.29600
F1261       F  0.64232588  0.18311551  0.68564653    -0.19400
H1262       H  0.68680259  0.20615601  0.60801977     0.18300
H1263       H  0.52945922  0.18796253  0.56922354     0.18300
F1264       F  0.56914784  0.20623002  0.49158181    -0.19400
C1265       C  0.76941639  0.40425595  0.55705585    -0.20900
C1266       C  0.79566851  0.36806867  0.53899849    -0.08900
C1267       C  0.84034341  0.38004574  0.55664788     0.30000
C1268       C  0.84874799  0.39600050  0.60736416    -0.20900
C1269       C  0.81612239  0.42090382  0.63116128    -0.08900
C1270       C  0.77797359  0.42881550  0.60111636     0.30000
F1271       F  0.74976344  0.46193546  0.61152953    -0.19400
H1272       H  0.73865253  0.41529999  0.54178239     0.18300
H1273       H  0.88287460  0.39827324  0.62091299     0.18300
F1274       F  0.87043453  0.39692609  0.52452518    -0.19400
C1275       C  0.78080875  0.38946197  0.85175077    -0.20900
C1276       C  0.81627075  0.41558021  0.85914342    -0.08900
C1277       C  0.84510248  0.40549608  0.90018724     0.30000
C1278       C  0.83366889  0.37463887  0.93645921    -0.20900
C1279       C  0.79203332  0.35489329  0.93986110    -0.08900
C1280       C  0.76974224  0.35942498  0.88926592     0.30000
F1281       F  0.73665532  0.33632251  0.87350730    -0.19400
H1282       H  0.76083619  0.39231620  0.81646329     0.18300
H1283       H  0.85995256  0.36154618  0.95774811     0.18300
F1284       F  0.88501155  0.42385809  0.90442313    -0.19400
C1285       C  0.80414770  0.13467569  0.85283918    -0.20900
C1286       C  0.83052414  0.09737851  0.85549016    -0.08900
C1287       C  0.85118766  0.08851237  0.90311385     0.30000
C1288       C  0.84069893  0.11271699  0.94744224    -0.20900
C1289       C  0.80618263  0.14601357  0.94863408    -0.08900
C1290       C  0.79431652  0.15862813  0.89902083     0.30000
F1291       F  0.77476535  0.19718049  0.89764278    -0.19400
H1292       H  0.79078366  0.14498944  0.81545840     0.18300
H1293       H  0.85928324  0.10283116  0.98163585     0.18300
F1294       F  0.87973585  0.05486162  0.90804966    -0.19400
C1295       C  0.79927746  0.06238270  0.57818369    -0.20900
C1296       C  0.83298859  0.06939720  0.61465906    -0.08900
C1297       C  0.85947035  0.10257219  0.60498450     0.30000
C1298       C  0.83804525  0.13642165  0.58001343    -0.20900
C1299       C  0.80460426  0.13441147  0.54099831    -0.08900
C1300       C  0.79074330  0.09131985  0.53759928     0.30000
F1301       F  0.77935134  0.07326389  0.49233636    -0.19400
H1302       H  0.78212258  0.03335564  0.57872039     0.18300
H1303       H  0.82404137  0.14792241  0.61547187     0.18300
F1304       F  0.89515929  0.10875200  0.63628513    -0.19400
C1305       C  0.65087756  0.37563585  0.93967706    -0.20900
C1306       C  0.69638527  0.36864210  0.95900931    -0.08900
C1307       C  0.71699576  0.40922828  0.94867716     0.30000
C1308       C  0.70321272  0.43598397  0.90843726    -0.20900
C1309       C  0.66714537  0.42744848  0.87744583    -0.08900
C1310       C  0.63741866  0.40075754  0.89728728     0.30000
F1311       F  0.59566686  0.39895600  0.87682124    -0.19400
H1312       H  0.62332439  0.36093584  0.95403548     0.18300
H1313       H  0.72415043  0.46156389  0.89791386     0.18300
F1314       F  0.75694896  0.42275177  0.96397716    -0.19400
C1315       C  0.70463919  0.37324423  0.64961363    -0.20900
C1316       C  0.67319890  0.40651783  0.64510850    -0.08900
C1317       C  0.65288964  0.41333096  0.59770116     0.30000
C1318       C  0.66571634  0.38950959  0.55469282    -0.20900
C1319       C  0.69950107  0.35522807  0.55437345    -0.08900
C1320       C  0.71707941  0.34823779  0.60601788     0.30000
F1321       F  0.74709011  0.31770730  0.61538150    -0.19400
H1322       H  0.72145037  0.36769138  0.68668252     0.18300
H1323       H  0.64720580  0.40143801  0.52254782     0.18300
F1324       F  0.62314153  0.44602320  0.59117362    -0.19400
C1325       C  0.68781637  0.11458349  0.85712788    -0.20900
C1326       C  0.67635428  0.07646041  0.87180096    -0.08900
C1327       C  0.68517871  0.06471212  0.92309956     0.30000
C1328       C  0.70203886  0.09349436  0.95952492    -0.20900
C1329       C  0.71234883  0.13681540  0.94954370    -0.08900
C1330       C  0.70693621  0.14192316  0.89149720     0.30000
F1331       F  0.71912354  0.17129337  0.85781782    -0.19400
H1332       H  0.68445146  0.12257929  0.81566733     0.18300
H1333       H  0.70761900  0.07818100  0.99608516     0.18300
F1334       F  0.67856088  0.02503496  0.93832886    -0.19400
C1335       C  0.72174528  0.11518340  0.64408064    -0.20900
C1336       C  0.68654070  0.08770308  0.64055528    -0.08900
C1337       C  0.65953198  0.09194213  0.59653723     0.30000
C1338       C  0.67009869  0.11955500  0.55582870    -0.20900
C1339       C  0.71008524  0.14385361  0.55259460    -0.08900
C1340       C  0.73092299  0.14376565  0.60334242     0.30000
F1341       F  0.75522443  0.17573092  0.61715340    -0.19400
H1342       H  0.74103905  0.11626932  0.67992129     0.18300
H1343       H  0.64718753  0.11756520  0.52525969     0.18300
F1344       F  0.62326883  0.06816243  0.59116797    -0.19400
O1345       O  0.63261406  0.95774226  0.19795823    -0.74000
O1346       O  0.63482047  0.54281780  0.30483167    -0.74000
O1347       O  0.63969451  0.54366903  0.19524504    -0.74100
O1348       O  0.62786466  0.96139089  0.30561388    -0.74100
O1349       O  0.70202787  0.95266682  0.30457057    -0.74000
O1350       O  0.71334042  0.53719264  0.20333299    -0.74000
O1351       O  0.70874767  0.53234594  0.30975952    -0.74000
O1352       O  0.70666141  0.95238387  0.20222692    -0.74100
Ni1353     Ni  0.63073420  0.50174570  0.25006467     1.25400
Ni1354     Ni  0.71002408  0.99360440  0.25432436     1.25400
C1355       C  0.67004854  0.93987300  0.18450205     0.88200
C1356       C  0.67226414  0.54776394  0.32816750     0.88100
C1357       C  0.67907983  0.55485030  0.18190940     0.88200
C1358       C  0.66446784  0.94698090  0.32589971     0.88300
C1359       C  0.72451089  0.67274924  0.49985764    -0.02000
C1360       C  0.71505345  0.82879772  0.50061975    -0.02000
O1361       O  0.79403655  0.55513296  0.29313958    -0.74000
O1362       O  0.78873453  0.96278818  0.20039550    -0.74000
O1363       O  0.78785690  0.97069484  0.30486366    -0.74100
O1364       O  0.79589096  0.54279573  0.18733562    -0.74100
O1365       O  0.87001215  0.53727740  0.18948119    -0.74000
O1366       O  0.86153146  0.95903985  0.30432199    -0.74000
O1367       O  0.86248323  0.95491695  0.19602084    -0.74000
O1368       O  0.86774420  0.54500496  0.29913047    -0.74100
Ni1369     Ni  0.78938688  0.00836546  0.24695398     1.25400
Ni1370     Ni  0.86849955  0.99898585  0.24794401     1.25400
C1371       C  0.83131701  0.56513371  0.31280496     0.88200
C1372       C  0.82342265  0.94642854  0.17894506     0.88100
C1373       C  0.82263451  0.95047617  0.32158324     0.88200
C1374       C  0.83353339  0.54879530  0.16625276     0.88300
C1375       C  0.78809845  0.67327961  0.50020293    -0.02000
C1376       C  0.77877682  0.82887425  0.49463350    -0.02000
O1377       O  0.94567291  0.71409183  0.22708410    -0.74000
O1378       O  0.56181015  0.71008550  0.28608850    -0.74000
O1379       O  0.53001357  0.71199855  0.18855993    -0.74100
O1380       O  0.97908514  0.70794421  0.32499256    -0.74100
O1381       O  0.97004408  0.63999038  0.31450316    -0.74000
O1382       O  0.54383761  0.64376282  0.19178304    -0.74000
O1383       O  0.55837437  0.64181224  0.29727899    -0.74000
O1384       O  0.95258915  0.64717424  0.20709704    -0.74100
Ni1385     Ni  0.50398663  0.71328891  0.25675474     1.25400
Ni1386     Ni  0.50605062  0.63992672  0.25225895     1.25400
C1387       C  0.93210669  0.68320867  0.20186040     0.88200
C1388       C  0.57634216  0.67679839  0.30734181     0.88100
C1389       C  0.54938847  0.67910676  0.17051655     0.88200
C1390       C  0.96493540  0.67334022  0.34159593     0.88300
C1391       C  0.68048058  0.71859671  0.49862679    -0.02000
C1392       C  0.82650875  0.72011513  0.50530245    -0.02000
O1393       O  0.53431042  0.84778010  0.31101307    -0.74000
O1394       O  0.95457849  0.85152348  0.19193306    -0.74000
O1395       O  0.94257846  0.84984304  0.29620181    -0.74100
O1396       O  0.54569952  0.84998024  0.20589480    -0.74100
O1397       O  0.55296587  0.78144476  0.21464338    -0.74000
O1398       O  0.93983985  0.78153665  0.28327090    -0.74000
O1399       O  0.96552961  0.78290071  0.18417587    -0.74000
O1400       O  0.52624393  0.77942112  0.31396595    -0.74100
Ni1401     Ni  0.49426876  0.85277948  0.25143489     1.25400
Ni1402     Ni  0.49623373  0.77902345  0.24888276     1.25400
C1403       C  0.54347370  0.81201709  0.33155305     0.88200
C1404       C  0.94639580  0.81687066  0.16960744     0.88100
C1405       C  0.92360387  0.81513369  0.30312078     0.88200
C1406       C  0.56654222  0.81517148  0.19585878     0.88300
C1407       C  0.67699838  0.78014228  0.50309817    -0.02000
C1408       C  0.82072325  0.78090956  0.49416349    -0.02000
C1409       C  0.84733845  0.80049672  0.34220115    -0.20900
C1410       C  0.89257614  0.81023185  0.34641927    -0.08900
C1411       C  0.91437867  0.80063143  0.39239242     0.30000
C1412       C  0.89195651  0.78389353  0.43340239    -0.20900
C1413       C  0.84515344  0.78583151  0.43827972    -0.08900
C1414       C  0.82376957  0.78853064  0.38787153     0.30000
F1415       F  0.78203385  0.77457597  0.38254798    -0.19400
H1416       H  0.83080790  0.80120042  0.30447875     0.18300
H1417       H  0.91301764  0.76878851  0.46129781     0.18300
F1418       F  0.95912410  0.80340641  0.39611555    -0.19400
C1419       C  0.93024009  0.81970440  0.07649537    -0.20900
C1420       C  0.91481104  0.81483048  0.12644179    -0.08900
C1421       C  0.87021931  0.80566442  0.13399227     0.30000
C1422       C  0.84249665  0.79904859  0.09045843    -0.20900
C1423       C  0.85699489  0.79822796  0.03779892    -0.08900
C1424       C  0.90216218  0.81520343  0.03365051     0.30000
F1425       F  0.91996618  0.83540432  0.99272346    -0.19400
H1426       H  0.96407136  0.82975852  0.07053383     0.18300
H1427       H  0.80958063  0.79096240  0.09728367     0.18300
F1428       F  0.85345443  0.80249588  0.18312703    -0.19400
C1429       C  0.56129349  0.79082791  0.42198303    -0.20900
C1430       C  0.57537225  0.80642176  0.37463141    -0.08900
C1431       C  0.62093545  0.80907354  0.36638020     0.30000
C1432       C  0.65078042  0.79987991  0.40752151    -0.20900
C1433       C  0.63855346  0.78869756  0.45876001    -0.08900
C1434       C  0.59086777  0.78294142  0.46308608     0.30000
F1435       F  0.56875368  0.77544764  0.50782702    -0.19400
H1436       H  0.52664792  0.78516695  0.42856931     0.18300
H1437       H  0.68451691  0.80294788  0.40107306     0.18300
F1438       F  0.63688724  0.82072292  0.31908965    -0.19400
C1439       C  0.66481325  0.78129707  0.10786397    -0.20900
C1440       C  0.64816765  0.79195162  0.05731872    -0.08900
C1441       C  0.61067501  0.82221977  0.06210006     0.30000
C1442       C  0.58757097  0.83058001  0.10781260    -0.20900
C1443       C  0.60031709  0.81250003  0.15405895    -0.08900
C1444       C  0.64023031  0.78825062  0.15491081     0.30000
F1445       F  0.65613404  0.77233117  0.20072573    -0.19400
H1446       H  0.69785021  0.76724563  0.11080949     0.18300
H1447       H  0.55777136  0.85094624  0.10618786     0.18300
F1448       F  0.59312439  0.84593768  0.02374043    -0.19400
C1449       C  0.83217483  0.71815254  0.11247123    -0.20900
C1450       C  0.85304139  0.71683545  0.06180138    -0.08900
C1451       C  0.90108998  0.71817596  0.06751290     0.30000
C1452       C  0.92374863  0.70256391  0.11110826    -0.20900
C1453       C  0.90175893  0.69366191  0.15693531    -0.08900
C1454       C  0.85629068  0.70722571  0.15965824     0.30000
F1455       F  0.83479574  0.70807827  0.20637456    -0.19400
H1456       H  0.79767247  0.72813063  0.11550109     0.18300
H1457       H  0.95992353  0.70025246  0.10996442     0.18300
F1458       F  0.92866759  0.73288547  0.03095185    -0.19400
C1459       C  0.93914263  0.66249852  0.43634081    -0.20900
C1460       C  0.93303560  0.67581965  0.38460588    -0.08900
C1461       C  0.89373151  0.69557251  0.37168848     0.30000
C1462       C  0.86402373  0.70683342  0.40990997    -0.20900
C1463       C  0.86771751  0.70161466  0.46472692    -0.08900
C1464       C  0.90553387  0.67212293  0.47467737     0.30000
F1465       F  0.90995298  0.64971897  0.51926967    -0.19400
H1466       H  0.96855171  0.64361904  0.44673241     0.18300
H1467       H  0.83683628  0.72023631  0.39254659     0.18300
F1468       F  0.88366732  0.70540581  0.32100440    -0.19400
C1469       C  0.64044383  0.71242171  0.34972768    -0.20900
C1470       C  0.60841679  0.68168555  0.35019903    -0.08900
C1471       C  0.60200211  0.66048616  0.39628197     0.30000
C1472       C  0.62600432  0.67071465  0.44061571    -0.20900
C1473       C  0.65499088  0.70524157  0.44495107    -0.08900
C1474       C  0.66576488  0.72067313  0.39539181     0.30000
F1475       F  0.70533053  0.73912036  0.38956178    -0.19400
H1476       H  0.64831077  0.72778809  0.31336947     0.18300
H1477       H  0.61825777  0.65148005  0.47194303     0.18300
F1478       F  0.57140061  0.63044615  0.39959175    -0.19400
C1479       C  0.65369445  0.70082487  0.09654003    -0.20900
C1480       C  0.64149125  0.70678869  0.04320642    -0.08900
C1481       C  0.59304957  0.70185972  0.03666438     0.30000
C1482       C  0.56467954  0.69082458  0.07731416    -0.20900
C1483       C  0.58056757  0.68351558  0.12708776    -0.08900
C1484       C  0.62546389  0.68861684  0.13681755     0.29600
F1485       F  0.64212799  0.68350910  0.18597953    -0.19400
H1486       H  0.68672381  0.70624457  0.10828029     0.18300
H1487       H  0.52929522  0.68842462  0.06951251     0.18300
F1488       F  0.56901060  0.70654197  0.99188638    -0.19400
C1489       C  0.76936283  0.90434028  0.05697296    -0.20900
C1490       C  0.79560320  0.86811515  0.03901479    -0.08900
C1491       C  0.84025324  0.88004225  0.05680078     0.30000
C1492       C  0.84856269  0.89597107  0.10754645    -0.20900
C1493       C  0.81592921  0.92093307  0.13123648    -0.08900
C1494       C  0.77783947  0.92887110  0.10109059     0.30000
F1495       F  0.74958591  0.96195926  0.11148875    -0.19400
H1496       H  0.73861726  0.91537577  0.04164366     0.18300
H1497       H  0.88266644  0.89819834  0.12119264     0.18300
F1498       F  0.87045043  0.89687819  0.02477633    -0.19400
C1499       C  0.78057659  0.88952090  0.35171838    -0.20900
C1500       C  0.81606626  0.91561441  0.35907631    -0.08900
C1501       C  0.84498913  0.90544620  0.39999422     0.30000
C1502       C  0.83356436  0.87463354  0.43631415    -0.20900
C1503       C  0.79191175  0.85493191  0.43979009    -0.08900
C1504       C  0.76957801  0.85944581  0.38921790     0.30000
F1505       F  0.73651567  0.83629264  0.37349407    -0.19400
H1506       H  0.76056526  0.89239470  0.31646407     0.18300
H1507       H  0.85986646  0.86153125  0.45756949     0.18300
F1508       F  0.88499775  0.92365623  0.40401869    -0.19400
C1509       C  0.80388525  0.63475820  0.35281433    -0.20900
C1510       C  0.83039375  0.59753290  0.35544731    -0.08900
C1511       C  0.85115156  0.58877120  0.40304181     0.30000
C1512       C  0.84059741  0.61294077  0.44738955    -0.20900
C1513       C  0.80599491  0.64615921  0.44861714    -0.08900
C1514       C  0.79404422  0.65872127  0.39899157     0.30000
F1515       F  0.77445481  0.69725625  0.39757459    -0.19400
H1516       H  0.79044672  0.64501974  0.31544643     0.18300
H1517       H  0.85921764  0.60310392  0.48157740     0.18300
F1518       F  0.87986795  0.55524182  0.40793217    -0.19400
C1519       C  0.79922055  0.56243869  0.07825207    -0.20900
C1520       C  0.83295278  0.56946853  0.11469410    -0.08900
C1521       C  0.85938013  0.60267985  0.10500913     0.30000
C1522       C  0.83791655  0.63650160  0.08001218    -0.20900
C1523       C  0.80445324  0.63447072  0.04101495    -0.08900
C1524       C  0.79062881  0.59136380  0.03766415     0.30000
F1525       F  0.77925884  0.57326067  0.99242391    -0.19400
H1526       H  0.78209497  0.53339625  0.07880772     0.18300
H1527       H  0.82394232  0.64799204  0.11548691     0.18300
F1528       F  0.89506492  0.60890911  0.13629668    -0.19400
C1529       C  0.65079290  0.87569900  0.43950891    -0.20900
C1530       C  0.69629044  0.86871146  0.45887455    -0.08900
C1531       C  0.71689421  0.90931353  0.44861136     0.30000
C1532       C  0.70309696  0.93612552  0.40843764    -0.20900
C1533       C  0.66708088  0.92757352  0.37737169    -0.08900
C1534       C  0.63737594  0.90081194  0.39709647     0.30000
F1535       F  0.59565819  0.89898634  0.37654359    -0.19400
H1536       H  0.62321086  0.86104457  0.45389480     0.18300
H1537       H  0.72401012  0.96174289  0.39799089     0.18300
F1538       F  0.75686338  0.92279723  0.46390353    -0.19400
C1539       C  0.70464890  0.87328543  0.14964652    -0.20900
C1540       C  0.67316821  0.90652905  0.14514567    -0.08900
C1541       C  0.65285123  0.91333538  0.09774978     0.30000
C1542       C  0.66571539  0.88955416  0.05474014    -0.20900
C1543       C  0.69949891  0.85528635  0.05441069    -0.08900
C1544       C  0.71710051  0.84828956  0.10604803     0.30000
F1545       F  0.74709919  0.81774485  0.11541915    -0.19400
H1546       H  0.72147178  0.86774691  0.18671178     0.18300
H1547       H  0.64722319  0.90151607  0.02261197     0.18300
F1548       F  0.62307260  0.94600333  0.09122112    -0.19400
C1549       C  0.68759666  0.61458008  0.35726767    -0.20900
C1550       C  0.67627320  0.57642404  0.37195301    -0.08900
C1551       C  0.68506843  0.56473346  0.42328393     0.30000
C1552       C  0.70186783  0.59356972  0.45968710    -0.20900
C1553       C  0.71215353  0.63688862  0.44965450    -0.08900
C1554       C  0.70668182  0.64196289  0.39160570     0.30000
F1555       F  0.71880125  0.67131580  0.35786611    -0.19400
H1556       H  0.68418230  0.62255673  0.31580450     0.18300
H1557       H  0.70749642  0.57828469  0.49625977     0.18300
F1558       F  0.67846224  0.52507110  0.43858048    -0.19400
C1559       C  0.72171213  0.61517349  0.14417619    -0.20900
C1560       C  0.68649515  0.58771102  0.14068683    -0.08900
C1561       C  0.65937799  0.59205417  0.09674502     0.30000
C1562       C  0.66997035  0.61967425  0.05608292    -0.20900
C1563       C  0.70992604  0.64393634  0.05274789    -0.08900
C1564       C  0.73082080  0.64380275  0.10347480     0.30000
F1565       F  0.75511452  0.67575515  0.11732188    -0.19400
H1566       H  0.74106888  0.61621717  0.17997554     0.18300
H1567       H  0.64696305  0.61782400  0.02541477     0.18300
F1568       F  0.62302389  0.56837941  0.09150695    -0.19400
O1569       O  0.63251834  0.95774703  0.69798404    -0.74000
O1570       O  0.63477421  0.54280442  0.80485888    -0.74000
O1571       O  0.63964188  0.54367936  0.69524930    -0.74100
O1572       O  0.62780442  0.96143381  0.80566526    -0.74100
O1573       O  0.70195379  0.95256019  0.80445630    -0.74000
O1574       O  0.71328077  0.53722765  0.70341204    -0.74000
O1575       O  0.70868770  0.53224528  0.80983804    -0.74000
O1576       O  0.70658014  0.95245066  0.70211151    -0.74100
Ni1577     Ni  0.63066240  0.50174382  0.75006976     1.25400
Ni1578     Ni  0.70996318  0.99358114  0.75431206     1.25400
C1579       C  0.66995153  0.93992283  0.68444041     0.88200
C1580       C  0.67221612  0.54770166  0.82822846     0.88100
C1581       C  0.67903420  0.55487328  0.68194487     0.88200
C1582       C  0.66441152  0.94694400  0.82587249     0.88300
C1583       C  0.72450697  0.67274530  0.99989227    -0.02000
C1584       C  0.71511164  0.82878590  0.00065042    -0.02000
O1585       O  0.79398300  0.55506812  0.79303476    -0.74000
O1586       O  0.78880053  0.96262496  0.70045318    -0.74000
O1587       O  0.78794669  0.97061560  0.80488838    -0.74100
O1588       O  0.79580475  0.54259944  0.68720045    -0.74100
O1589       O  0.86993244  0.53734537  0.68945732    -0.74000
O1590       O  0.86163032  0.95899284  0.80425031    -0.74000
O1591       O  0.86256497  0.95497162  0.69590102    -0.74000
O1592       O  0.86769467  0.54500155  0.79910590    -0.74100
Ni1593     Ni  0.78940834  0.00824073  0.74693887     1.25400
Ni1594     Ni  0.86853301  0.99899089  0.74789942     1.25400
C1595       C  0.83123920  0.56508198  0.81276477     0.88200
C1596       C  0.82350641  0.94639232  0.67889926     0.88100
C1597       C  0.82275249  0.95042661  0.82158197     0.88200
C1598       C  0.83343728  0.54872996  0.66616771     0.88300
C1599       C  0.78808619  0.67325657  0.00019174    -0.02000
C1600       C  0.77883559  0.82885371  0.99463952    -0.02000
O1601       O  0.94598451  0.71400940  0.72709062    -0.74000
O1602       O  0.56188306  0.71006759  0.78627223    -0.74000
O1603       O  0.53025742  0.71190173  0.68867112    -0.74100
O1604       O  0.97925553  0.70787857  0.82508197    -0.74100
O1605       O  0.97022975  0.63991640  0.81464502    -0.74000
O1606       O  0.54395974  0.64364307  0.69188182    -0.74000
O1607       O  0.55852125  0.64177880  0.79740968    -0.74000
O1608       O  0.95282779  0.64706927  0.70719652    -0.74100
Ni1609     Ni  0.50412789  0.71323832  0.75681030     1.25400
Ni1610     Ni  0.50620095  0.63985472  0.75238509     1.25400
C1611       C  0.93240063  0.68312550  0.70188378     0.88200
C1612       C  0.57643294  0.67678503  0.80750876     0.88100
C1613       C  0.54952527  0.67897216  0.67058074     0.88200
C1614       C  0.96508827  0.67328287  0.84169842     0.88300
C1615       C  0.68051168  0.71863072  0.99871253    -0.02000
C1616       C  0.82648199  0.72010007  0.00519738    -0.02000
O1617       O  0.53442811  0.84786104  0.81084904    -0.74000
O1618       O  0.95456961  0.85153182  0.69192833    -0.74000
O1619       O  0.94263882  0.84976411  0.79617492    -0.74100
O1620       O  0.54575883  0.85002040  0.70575972    -0.74100
O1621       O  0.55307086  0.78148633  0.71453596    -0.74000
O1622       O  0.93995089  0.78145270  0.78324500    -0.74000
O1623       O  0.96549991  0.78290807  0.68410864    -0.74000
O1624       O  0.52637740  0.77950021  0.81384259    -0.74100
Ni1625     Ni  0.49433955  0.85280989  0.75132226     1.25400
Ni1626     Ni  0.49634794  0.77905390  0.74877370     1.25400
C1627       C  0.54362296  0.81210671  0.83138835     0.88200
C1628       C  0.94634996  0.81688869  0.66960287     0.88100
C1629       C  0.92368941  0.81504307  0.80309048     0.88200
C1630       C  0.56664120  0.81521952  0.69576781     0.88300
C1631       C  0.67700391  0.78017583  0.00312899    -0.02000
C1632       C  0.82077539  0.78089529  0.99411182    -0.02000
C1633       C  0.84741129  0.80038505  0.84214544    -0.20900
C1634       C  0.89264273  0.81014570  0.84636974    -0.08900
C1635       C  0.91442821  0.80063566  0.89237596     0.30000
C1636       C  0.89201333  0.78385549  0.93336429    -0.20900
C1637       C  0.84520937  0.78579447  0.93823205    -0.08900
C1638       C  0.82382692  0.78847894  0.88783296     0.30000
F1639       F  0.78208705  0.77453111  0.88252930    -0.19400
H1640       H  0.83089363  0.80104090  0.80441499     0.18300
H1641       H  0.91307844  0.76876311  0.96126726     0.18300
F1642       F  0.95915300  0.80357379  0.89616534    -0.19400
C1643       C  0.93016274  0.81968626  0.57652964    -0.20900
C1644       C  0.91473122  0.81487424  0.62647851    -0.08900
C1645       C  0.87012941  0.80574876  0.63406011     0.30000
C1646       C  0.84239766  0.79907740  0.59053858    -0.20900
C1647       C  0.85690445  0.79824384  0.53787138    -0.08900
C1648       C  0.90207270  0.81520028  0.53370723     0.30000
F1649       F  0.91986488  0.83541814  0.49279034    -0.19400
H1650       H  0.96400585  0.82970286  0.57054677     0.18300
H1651       H  0.80949791  0.79092282  0.59739389     0.18300
F1652       F  0.85338238  0.80265170  0.68321321    -0.19400
C1653       C  0.56137900  0.79098095  0.92182017    -0.20900
C1654       C  0.57551195  0.80653818  0.87448349    -0.08900
C1655       C  0.62108949  0.80917206  0.86630116     0.30000
C1656       C  0.65088746  0.79993003  0.90748601    -0.20900
C1657       C  0.63859952  0.78875344  0.95871950    -0.08900
C1658       C  0.59089203  0.78307964  0.96296956     0.30000
F1659       F  0.56867665  0.77563191  0.00765067    -0.19400
H1660       H  0.52672499  0.78535440  0.92836048     0.18300
H1661       H  0.68463639  0.80295342  0.90108845     0.18300
F1662       F  0.63709575  0.82087393  0.81905755    -0.19400
C1663       C  0.66488425  0.78124271  0.60781364    -0.20900
C1664       C  0.64821597  0.79190701  0.55729015    -0.08900
C1665       C  0.61076382  0.82221528  0.56206858     0.30000
C1666       C  0.58776596  0.83069892  0.60780937    -0.20900
C1667       C  0.60046295  0.81255598  0.65403048    -0.08900
C1668       C  0.64030189  0.78818643  0.65485628     0.30000
F1669       F  0.65613072  0.77212987  0.70063256    -0.19400
H1670       H  0.69792731  0.76719403  0.61074173     0.18300
H1671       H  0.55803149  0.85115008  0.60620290     0.18300
F1672       F  0.59317953  0.84587472  0.52367620    -0.19400
C1673       C  0.83236898  0.71812384  0.61265270    -0.20900
C1674       C  0.85314398  0.71684084  0.56191759    -0.08900
C1675       C  0.90120335  0.71820535  0.56756934     0.30000
C1676       C  0.92393760  0.70256574  0.61111867    -0.20900
C1677       C  0.90201881  0.69358683  0.65697105    -0.08900
C1678       C  0.85655398  0.70713388  0.65977845     0.30000
F1679       F  0.83513792  0.70794833  0.70654472    -0.19400
H1680       H  0.79786394  0.72805662  0.61579641     0.18300
H1681       H  0.96011132  0.70029391  0.60992263     0.18300
F1682       F  0.92872896  0.73294106  0.53097200    -0.19400
C1683       C  0.93916723  0.66249204  0.93639917    -0.20900
C1684       C  0.93312283  0.67577445  0.88464539    -0.08900
C1685       C  0.89379256  0.69543704  0.87161941     0.30000
C1686       C  0.86404056  0.70676777  0.90978189    -0.20900
C1687       C  0.86768782  0.70158048  0.96462598    -0.08900
C1688       C  0.90548215  0.67208696  0.97464309     0.30000
F1689       F  0.90982601  0.64967222  0.01922814    -0.19400
H1690       H  0.96857799  0.64364344  0.94686956     0.18300
H1691       H  0.83687336  0.72016212  0.89233146     0.18300
F1692       F  0.88375126  0.70509806  0.82087950    -0.19400
C1693       C  0.64050279  0.71242831  0.84988035    -0.20900
C1694       C  0.60846381  0.68170275  0.85037847    -0.08900
C1695       C  0.60198463  0.66055860  0.89648461     0.30000
C1696       C  0.62600880  0.67076960  0.94079084    -0.20900
C1697       C  0.65502538  0.70527153  0.94508315    -0.08900
C1698       C  0.66582237  0.72068343  0.89553584     0.30000
F1699       F  0.70540715  0.73909500  0.88971830    -0.19400
H1700       H  0.64839261  0.72776327  0.81350801     0.18300
H1701       H  0.61819448  0.65159293  0.97215199     0.18300
F1702       F  0.57127080  0.63062326  0.89985612    -0.19400
C1703       C  0.65368143  0.70079413  0.59645472    -0.20900
C1704       C  0.64145974  0.70671757  0.54312225    -0.08900
C1705       C  0.59303675  0.70163546  0.53659602     0.30000
C1706       C  0.56471046  0.69054508  0.57728167    -0.20900
C1707       C  0.58063560  0.68332787  0.62707028    -0.08900
C1708       C  0.62551324  0.68851840  0.63675141     0.29600
F1709       F  0.64222551  0.68338628  0.68588791    -0.19400
H1710       H  0.68670685  0.70623438  0.60816774     0.18300
H1711       H  0.52933253  0.68806253  0.56950592     0.18300
F1712       F  0.56896465  0.70633998  0.49184116    -0.19400
C1713       C  0.76933467  0.90434598  0.55701139    -0.20900
C1714       C  0.79556733  0.86813966  0.53898311    -0.08900
C1715       C  0.84024088  0.88009271  0.55665797     0.30000
C1716       C  0.84863138  0.89603511  0.60737760    -0.20900
C1717       C  0.81600632  0.92094472  0.63116264    -0.08900
C1718       C  0.77786880  0.92887480  0.60110504     0.30000
F1719       F  0.74964108  0.96197473  0.61154439    -0.19400
H1720       H  0.73858285  0.91540452  0.54172491     0.18300
H1721       H  0.88275555  0.89829246  0.62094191     0.18300
F1722       F  0.87037063  0.89694080  0.52455765    -0.19400
C1723       C  0.78075616  0.88945042  0.85170251    -0.20900
C1724       C  0.81621149  0.91557648  0.85910026    -0.08900
C1725       C  0.84505113  0.90550631  0.90013769     0.30000
C1726       C  0.83363214  0.87465294  0.93641053    -0.20900
C1727       C  0.79200017  0.85491146  0.93981572    -0.08900
C1728       C  0.76970729  0.85941231  0.88922353     0.30000
F1729       F  0.73662839  0.83628519  0.87349863    -0.19400
H1730       H  0.76077406  0.89230595  0.81642196     0.18300
H1731       H  0.85991081  0.86157395  0.95771689     0.18300
F1732       F  0.88494365  0.92389732  0.90437798    -0.19400
C1733       C  0.80380407  0.63467918  0.85281344    -0.20900
C1734       C  0.83027240  0.59743738  0.85545448    -0.08900
C1735       C  0.85101961  0.58865759  0.90305549     0.30000
C1736       C  0.84051635  0.61286114  0.94739050    -0.20900
C1737       C  0.80595193  0.64611121  0.94861206    -0.08900
C1738       C  0.79400759  0.65866734  0.89897724     0.30000
F1739       F  0.77446801  0.69721496  0.89751620    -0.19400
H1740       H  0.79037653  0.64494624  0.81544286     0.18300
H1741       H  0.85914426  0.60302191  0.98157119     0.18300
F1742       F  0.87969512  0.55509826  0.90795946    -0.19400
C1743       C  0.79917536  0.56241526  0.57811408    -0.20900
C1744       C  0.83285244  0.56944447  0.61463152    -0.08900
C1745       C  0.85929023  0.60266198  0.60502675     0.30000
C1746       C  0.83787019  0.63649262  0.58001041    -0.20900
C1747       C  0.80444071  0.63447313  0.54098004    -0.08900
C1748       C  0.79062282  0.59136827  0.53754681     0.30000
F1749       F  0.77926139  0.57331673  0.49226338    -0.19400
H1750       H  0.78206366  0.53336427  0.57860202     0.18300
H1751       H  0.82390231  0.64802511  0.61546242     0.18300
F1752       F  0.89490060  0.60888993  0.63643374    -0.19400
C1753       C  0.65083825  0.87572873  0.93960388    -0.20900
C1754       C  0.69635258  0.86871448  0.95890501    -0.08900
C1755       C  0.71697885  0.90928896  0.94854763     0.30000
C1756       C  0.70318441  0.93605265  0.90831893    -0.20900
C1757       C  0.66708372  0.92754599  0.87736228    -0.08900
C1758       C  0.63736069  0.90085909  0.89722751     0.30000
F1759       F  0.59557902  0.89910024  0.87683628    -0.19400
H1760       H  0.62327893  0.86107348  0.95403123     0.18300
H1761       H  0.72412701  0.96162674  0.89778723     0.18300
F1762       F  0.75694056  0.92279625  0.96384111    -0.19400
C1763       C  0.70449876  0.87333850  0.64957838    -0.20900
C1764       C  0.67304936  0.90660064  0.64506145    -0.08900
C1765       C  0.65278183  0.91344848  0.59764175     0.30000
C1766       C  0.66564037  0.88964877  0.55463744    -0.20900
C1767       C  0.69940519  0.85534852  0.55434051    -0.08900
C1768       C  0.71697719  0.84835647  0.60598426     0.30000
F1769       F  0.74702439  0.81785283  0.61534489    -0.19400
H1770       H  0.72129600  0.86778519  0.68665604     0.18300
H1771       H  0.64716260  0.90161055  0.52248703     0.18300
F1772       F  0.62304777  0.94615148  0.59110226    -0.19400
C1773       C  0.68745780  0.61454514  0.85736387    -0.20900
C1774       C  0.67624608  0.57635089  0.87203499    -0.08900
C1775       C  0.68517947  0.56464593  0.92333288     0.30000
C1776       C  0.70190544  0.59352153  0.95974519    -0.20900
C1777       C  0.71212504  0.63686020  0.94970898    -0.08900
C1778       C  0.70660226  0.64192443  0.89167011     0.30000
F1779       F  0.71874396  0.67125968  0.85792343    -0.19400
H1780       H  0.68396606  0.62254219  0.81591671     0.18300
H1781       H  0.70751756  0.57825687  0.99633436     0.18300
F1782       F  0.67876989  0.52493845  0.93858695    -0.19400
C1783       C  0.72170310  0.61518895  0.64416639    -0.20900
C1784       C  0.68648100  0.58771948  0.64069229    -0.08900
C1785       C  0.65939063  0.59203300  0.59672220     0.30000
C1786       C  0.66997867  0.61965599  0.55605782    -0.20900
C1787       C  0.70993238  0.64392384  0.55271263    -0.08900
C1788       C  0.73082118  0.64380784  0.60344202     0.30000
F1789       F  0.75510040  0.67578914  0.61725271    -0.19400
H1790       H  0.74105233  0.61624879  0.67996976     0.18300
H1791       H  0.64694405  0.61784415  0.52541369     0.18300
F1792       F  0.62305305  0.56833885  0.59146752    -0.19400
loop_ 
_geom_bond_atom_site_label_1 
_geom_bond_atom_site_label_2 
_geom_bond_distance 
_geom_bond_site_symmetry_2 
_ccdc_geom_bond_type 
O1           C11   1.286       .  A
O1         Ni457   1.940       .  S
O2           C12   1.284       .  A
O2           Ni9   1.928       .  S
O3           C13   1.292       .  A
O3           Ni9   1.971       .  S
O4           C14   1.282       .  A
O4         Ni457   1.932       .  S
O5           C14   1.269       .  A
O5          Ni10   1.862       .  S
O6           C13   1.276       .  A
O6         Ni458   1.922   1_545  S
O7           C12   1.272       .  A
O7         Ni458   1.881   1_545  S
O8           C11   1.265       .  A
O8          Ni10   1.882       .  S
Ni9         O449   1.940   1_545  S
Ni9         O452   1.932   1_545  S
Ni9        Ni458   2.382   1_545  S
Ni10        O454   1.923       .  S
Ni10        O455   1.882       .  S
Ni10       Ni457   2.382       .  S
C11         C196   1.469       .  S
C12         C206   1.455       .  S
C13         C216   1.515       .  S
C14         C189   1.457       .  S
C15          C31   1.904       .  S
C15          C47   1.939       .  S
C15         C209   1.770       .  S
C15         C443   1.705       .  S
C16          C32   1.914       .  S
C16          C63   1.971       .  S
C16         C186   1.745       .  S
C16         C423   1.672       .  S
O17          C27   1.276       .  A
O17        Ni473   1.920       .  S
O18          C28   1.270       .  A
O18         Ni25   1.885       .  S
O19          C29   1.279       .  A
O19         Ni25   1.915       .  S
O20          C30   1.271       .  A
O20        Ni473   1.900       .  S
O21          C30   1.284       .  A
O21        Ni474   1.938   1_545  S
O22          C29   1.285       .  A
O22         Ni26   1.948       .  S
O23          C28   1.286       .  A
O23         Ni26   1.952       .  S
O24          C27   1.294       .  A
O24        Ni474   1.970   1_545  S
Ni25        O465   1.920       .  S
Ni25        O468   1.900       .  S
Ni25        Ni26   2.375       .  S
Ni26        O469   1.938       .  S
Ni26        O472   1.970       .  S
C27         C166   1.505       .  S
C28         C149   1.489       .  S
C29         C156   1.495       .  S
C30         C176   1.476       .  S
C31          C48   1.933       .  S
C31         C169   1.656       .  S
C31         C403   1.684       .  S
C32          C64   1.950       .  S
C32         C159   1.688       .  S
C32         C370   1.781       .  S
O33          C43   1.262       .  A
O33        Ni937   1.900       .  S
O34          C44   1.263       .  A
O34         Ni41   1.884       .  S
O35          C45   1.272       .  A
O35         Ni41   1.909       .  S
O36          C46   1.279       .  A
O36        Ni937   1.908       .  S
O37          C46   1.279       .  A
O37        Ni938   1.922       .  S
O38          C45   1.277       .  A
O38         Ni42   1.922       .  S
O39          C44   1.291       .  A
O39         Ni42   1.945       .  S
O40          C43   1.296       .  A
O40        Ni938   1.978       .  S
Ni41        O929   1.900   1_455  S
Ni41        O932   1.907   1_455  S
Ni41        Ni42   2.359       .  S
Ni42        O933   1.922   1_455  S
Ni42        O936   1.978   1_455  S
C43         C109   1.494       .  S
C44         C126   1.467       .  S
C45         C139   1.461       .  S
C46         C116   1.457       .  S
C47          C63   1.980       .  S
C47         C129   1.633       .  S
C47         C360   1.685       .  S
C48          C64   1.976       .  S
C48         C119   1.701       .  S
C48         C330   1.652       .  S
O49          C59   1.284       .  A
O49         Ni57   1.939   1_455  S
O50          C60   1.282       .  A
O50        Ni953   1.928       .  S
O51          C61   1.284       .  A
O51        Ni953   1.930       .  S
O52          C62   1.285       .  A
O52         Ni57   1.930   1_455  S
O53          C62   1.268       .  A
O53         Ni58   1.915   1_455  S
O54          C61   1.272       .  A
O54        Ni954   1.903       .  S
O55          C60   1.269       .  A
O55        Ni954   1.892       .  S
O56          C59   1.267       .  A
O56         Ni58   1.889   1_455  S
Ni57        O946   1.928       .  S
Ni57        O947   1.931       .  S
Ni57        Ni58   2.370       .  S
Ni58        O950   1.903       .  S
Ni58        O951   1.892       .  S
C59          C86   1.462       .  S
C60          C76   1.454       .  S
C61          C66   1.457       .  S
C62          C99   1.471       .  S
C63          C89   1.630       .  S
C63         C320   1.667       .  S
C64          C69   1.614       .  S
C64         C303   1.664       .  S
C65          C66   1.405       .  A
C65          C70   1.425       .  A
C65          H72   1.082       .  S
C66          C67   1.372       .  A
C67          C68   1.367       .  A
C67          F74   1.349       .  S
C68          C69   1.405       .  A
C68          H73   1.057       .  S
C69          C70   1.438       .  A
C70          F71   1.350       .  S
C75          C76   1.368       .  A
C75          C80   1.389       .  A
C75          H82   1.086       .  S
C76          C77   1.392       .  A
C77          C78   1.407       .  A
C77          F84   1.358       .  S
C78          C79   1.413       .  A
C78          H83   1.044       .  S
C79         C288   1.665   1_554  S
C79          C80   1.481       .  A
C80          F81   1.352   1_554  S
C85          C86   1.382       .  A
C85          C90   1.389       .  A
C85          H92   1.073       .  S
C86          C87   1.386       .  A
C87          C88   1.403       .  A
C87          F94   1.358       .  S
C88          C89   1.411       .  A
C88          H93   1.032       .  S
C89          C90   1.451       .  A
C90          F91   1.348       .  S
C95          C96   1.421       .  A
C95         C100   1.422       .  A
C95         H102   1.074       .  S
C96         C287   1.667       .  S
C96          C97   1.461       .  A
C97          C98   1.378       .  A
C97         F104   1.337       .  S
C98          C99   1.365       .  A
C98         H103   1.086       .  S
C99         C100   1.401       .  A
C100        F101   1.356       .  S
C105        C106   1.438       .  A
C105        C110   1.441       .  A
C105        H112   1.072       .  S
C106        C272   1.651       .  S
C106        C107   1.448       .  A
C107        C108   1.388       .  A
C107        F114   1.346       .  S
C108        C109   1.380       .  A
C108        H113   1.083       .  S
C109        C110   1.414       .  A
C110        F111   1.356       .  S
C115        C116   1.399       .  A
C115        C120   1.430       .  A
C115        H122   1.083       .  S
C116        C117   1.356       .  A
C117        C118   1.360       .  A
C117        F124   1.364       .  S
C118        C119   1.415       .  A
C118        H123   1.009       .  S
C119        C120   1.470       .  A
C120        F121   1.352       .  S
C125        C126   1.403       .  A
C125        C130   1.420       .  A
C125        H132   1.083       .  S
C126        C127   1.378       .  A
C127        C128   1.386       .  A
C127        F134   1.359       .  S
C128        C129   1.439       .  A
C128        H133   1.044       .  S
C129        C130   1.403       .  A
C130        F131   1.353       .  S
C135        C136   1.421       .  A
C135        C140   1.398       .  A
C135        H142   1.053       .  S
C136        C271   1.685   1_554  S
C136        C137   1.474       .  A
C137        C138   1.397       .  A
C137        F144   1.356   1_554  S
C138        C139   1.374       .  A
C138        H143   1.083       .  S
C139        C140   1.382       .  A
C140        F141   1.358       .  S
C145        C146   1.453       .  A
C145        C150   1.402       .  A
C145        H152   1.049       .  S
C146        C256   1.781   1_554  S
C146        C147   1.476       .  A
C147        C148   1.418       .  A
C147        F154   1.349       .  S
C148        C149   1.379       .  A
C148        H153   1.083       .  S
C149        C150   1.391       .  A
C150        F151   1.359       .  S
C155        C156   1.391       .  A
C155        C160   1.410       .  A
C155        H162   1.083       .  S
C156        C157   1.388       .  A
C157        C158   1.411       .  A
C157        F164   1.357       .  S
C158        C159   1.423       .  A
C158        H163   1.033       .  S
C159        C160   1.458       .  A
C160        F161   1.323       .  S
C165        C166   1.411       .  A
C165        C170   1.432       .  A
C165        H172   1.082       .  S
C166        C167   1.389       .  A
C167        C168   1.401       .  A
C167        F174   1.358       .  S
C168        C169   1.459       .  A
C168        H173   1.077       .  S
C169        C170   1.373       .  A
C170        F171   1.350       .  S
C175        C176   1.397       .  A
C175        C180   1.410       .  A
C175        H182   1.083       .  S
C176        C177   1.376       .  A
C177        C178   1.396       .  A
C177        F184   1.354       .  S
C178        C179   1.415       .  A
C178        H183   1.058       .  S
C179        C255   1.684       .  S
C179        C180   1.464       .  A
C180        F181   1.342   1_554  S
C185        C186   1.457       .  A
C185        C190   1.401       .  A
C185        H192   1.034       .  S
C186        C187   1.489       .  A
C187        C188   1.393       .  A
C187        F194   1.346       .  S
C188        C189   1.374       .  A
C188        H193   1.087       .  S
C189        C190   1.359       .  A
C190        F191   1.357       .  S
C195        C196   1.402       .  A
C195        C200   1.414       .  A
C195        H202   1.084       .  S
C196        C197   1.368       .  A
C197        C198   1.384       .  A
C197        F204   1.361       .  S
C198        C199   1.466       .  A
C198        H203   1.054       .  S
C199        C240   1.672       .  S
C199        C200   1.435       .  A
C200        F201   1.326       .  S
C205        C206   1.340       .  A
C205        C210   1.380       .  A
C205        H212   1.094       .  S
C206        C207   1.386       .  A
C207        C208   1.417       .  A
C207        F214   1.356       .  S
C208        C209   1.461       .  A
C208        H213   1.066       .  S
C209        C210   1.500       .  A
C210        F211   1.340       .  S
C215        C216   1.404       .  A
C215        C220   1.423       .  A
C215        H222   1.083       .  S
C216        C217   1.388       .  A
C217        C218   1.412       .  A
C217        F224   1.358       .  S
C218        C219   1.456       .  A
C218        H223   1.045       .  S
C219        C239   1.705   1_554  S
C219        C220   1.438       .  A
C220        F221   1.328       .  S
O225        C235   1.286       .  A
O225       Ni681   1.940       .  S
O226        C236   1.284       .  A
O226       Ni233   1.929       .  S
O227        C237   1.292       .  A
O227       Ni233   1.971       .  S
O228        C238   1.282       .  A
O228       Ni681   1.933       .  S
O229        C238   1.270       .  A
O229       Ni234   1.863       .  S
O230        C237   1.276       .  A
O230       Ni682   1.923   1_545  S
O231        C236   1.272       .  A
O231       Ni682   1.881   1_545  S
O232        C235   1.265       .  A
O232       Ni234   1.882       .  S
Ni233       O673   1.940   1_545  S
Ni233       O676   1.933   1_545  S
Ni233      Ni682   2.382   1_545  S
Ni234       O678   1.923       .  S
Ni234       O679   1.882       .  S
Ni234      Ni681   2.382       .  S
C235        C420   1.469       .  S
C236        C430   1.455       .  S
C237        C440   1.515       .  S
C238        C413   1.457       .  S
C239        C255   1.904   1_556  S
C239        C271   1.939       .  S
C239        C433   1.771       .  S
C240        C256   1.914   1_554  S
C240        C287   1.971       .  S
C240        C410   1.745   1_554  S
O241        C251   1.276       .  A
O241       Ni697   1.920       .  S
O242        C252   1.270       .  A
O242       Ni249   1.885       .  S
O243        C253   1.279       .  A
O243       Ni249   1.915       .  S
O244        C254   1.271       .  A
O244       Ni697   1.900       .  S
O245        C254   1.284       .  A
O245       Ni698   1.938   1_545  S
O246        C253   1.285       .  A
O246       Ni250   1.949       .  S
O247        C252   1.286       .  A
O247       Ni250   1.952       .  S
O248        C251   1.294       .  A
O248       Ni698   1.970   1_545  S
Ni249       O689   1.920       .  S
Ni249       O692   1.900       .  S
Ni249      Ni250   2.375       .  S
Ni250       O693   1.938       .  S
Ni250       O696   1.970       .  S
C251        C390   1.505       .  S
C252        C373   1.489       .  S
C253        C380   1.495       .  S
C254        C400   1.476       .  S
C255        C272   1.933       .  S
C255        C393   1.656   1_554  S
C256        C288   1.950       .  S
C256        C383   1.688       .  S
O257        C267   1.262       .  A
O257      Ni1161   1.899       .  S
O258        C268   1.263       .  A
O258       Ni265   1.884       .  S
O259        C269   1.272       .  A
O259       Ni265   1.908       .  S
O260        C270   1.279       .  A
O260      Ni1161   1.907       .  S
O261        C270   1.279       .  A
O261      Ni1162   1.922       .  S
O262        C269   1.277       .  A
O262       Ni266   1.922       .  S
O263        C268   1.291       .  A
O263       Ni266   1.945       .  S
O264        C267   1.296       .  A
O264      Ni1162   1.978       .  S
Ni265      O1153   1.899   1_455  S
Ni265      O1156   1.908   1_455  S
Ni265      Ni266   2.359       .  S
Ni266      O1157   1.922   1_455  S
Ni266      O1160   1.978   1_455  S
C267        C333   1.493       .  S
C268        C350   1.467       .  S
C269        C363   1.461       .  S
C270        C340   1.457       .  S
C271        C287   1.980   1_556  S
C271        C353   1.632       .  S
C272        C288   1.976   1_554  S
C272        C343   1.701   1_554  S
O273        C283   1.284       .  A
O273       Ni281   1.939   1_455  S
O274        C284   1.282       .  A
O274      Ni1177   1.928       .  S
O275        C285   1.284       .  A
O275      Ni1177   1.931       .  S
O276        C286   1.285       .  A
O276       Ni281   1.929   1_455  S
O277        C286   1.268       .  A
O277       Ni282   1.915   1_455  S
O278        C285   1.272       .  A
O278      Ni1178   1.904       .  S
O279        C284   1.269       .  A
O279      Ni1178   1.893       .  S
O280        C283   1.267       .  A
O280       Ni282   1.889   1_455  S
Ni281      O1170   1.928       .  S
Ni281      O1171   1.931       .  S
Ni281      Ni282   2.370       .  S
Ni282      O1174   1.904       .  S
Ni282      O1175   1.893       .  S
C283        C310   1.463       .  S
C284        C300   1.454       .  S
C285        C290   1.458       .  S
C286        C323   1.471       .  S
C287        C313   1.630   1_554  S
C288        C293   1.615       .  S
C289        C290   1.406       .  A
C289        C294   1.425       .  A
C289        H296   1.082       .  S
C290        C291   1.372       .  A
C291        C292   1.367       .  A
C291        F298   1.349       .  S
C292        C293   1.405       .  A
C292        H297   1.057       .  S
C293        C294   1.438       .  A
C294        F295   1.350       .  S
C299        C300   1.368       .  A
C299        C304   1.389       .  A
C299        H306   1.086       .  S
C300        C301   1.392       .  A
C301        C302   1.408       .  A
C301        F308   1.358       .  S
C302        C303   1.414       .  A
C302        H307   1.044       .  S
C303        C304   1.481       .  A
C304        F305   1.352       .  S
C309        C310   1.382       .  A
C309        C314   1.390       .  A
C309        H316   1.073       .  S
C310        C311   1.386       .  A
C311        C312   1.403       .  A
C311        F318   1.358       .  S
C312        C313   1.410       .  A
C312        H317   1.032       .  S
C313        C314   1.451       .  A
C314        F315   1.348   1_556  S
C319        C320   1.421       .  A
C319        C324   1.422       .  A
C319        H326   1.074       .  S
C320        C321   1.462       .  A
C321        C322   1.378       .  A
C321        F328   1.337       .  S
C322        C323   1.365       .  A
C322        H327   1.086       .  S
C323        C324   1.401       .  A
C324        F325   1.356       .  S
C329        C330   1.438       .  A
C329        C334   1.441       .  A
C329        H336   1.072       .  S
C330        C331   1.448       .  A
C331        C332   1.388       .  A
C331        F338   1.346       .  S
C332        C333   1.379       .  A
C332        H337   1.083       .  S
C333        C334   1.414       .  A
C334        F335   1.356       .  S
C339        C340   1.399       .  A
C339        C344   1.429       .  A
C339        H346   1.083       .  S
C340        C341   1.356       .  A
C341        C342   1.361       .  A
C341        F348   1.364       .  S
C342        C343   1.415       .  A
C342        H347   1.009       .  S
C343        C344   1.470       .  A
C344        F345   1.352   1_556  S
C349        C350   1.403       .  A
C349        C354   1.420       .  A
C349        H356   1.083       .  S
C350        C351   1.378       .  A
C351        C352   1.386       .  A
C351        F358   1.359       .  S
C352        C353   1.439       .  A
C352        H357   1.044       .  S
C353        C354   1.403       .  A
C354        F355   1.353       .  S
C359        C360   1.421       .  A
C359        C364   1.398       .  A
C359        H366   1.054       .  S
C360        C361   1.474       .  A
C361        C362   1.397       .  A
C361        F368   1.356       .  S
C362        C363   1.375       .  A
C362        H367   1.083       .  S
C363        C364   1.382       .  A
C364        F365   1.358       .  S
C369        C370   1.453       .  A
C369        C374   1.402       .  A
C369        H376   1.049       .  S
C370        C371   1.475       .  A
C371        C372   1.418       .  A
C371        F378   1.349       .  S
C372        C373   1.379       .  A
C372        H377   1.083       .  S
C373        C374   1.391       .  A
C374        F375   1.359       .  S
C379        C380   1.391       .  A
C379        C384   1.410       .  A
C379        H386   1.083       .  S
C380        C381   1.388       .  A
C381        C382   1.411       .  A
C381        F388   1.357       .  S
C382        C383   1.423       .  A
C382        H387   1.033       .  S
C383        C384   1.459       .  A
C384        F385   1.323       .  S
C389        C390   1.411       .  A
C389        C394   1.432       .  A
C389        H396   1.082       .  S
C390        C391   1.389       .  A
C391        C392   1.402       .  A
C391        F398   1.358       .  S
C392        C393   1.459       .  A
C392        H397   1.077       .  S
C393        C394   1.373       .  A
C394        F395   1.350       .  S
C399        C400   1.397       .  A
C399        C404   1.411       .  A
C399        H406   1.082       .  S
C400        C401   1.376       .  A
C401        C402   1.396       .  A
C401        F408   1.354       .  S
C402        C403   1.415       .  A
C402        H407   1.058       .  S
C403        C404   1.464       .  A
C404        F405   1.342       .  S
C409        C410   1.458       .  A
C409        C414   1.401       .  A
C409        H416   1.034       .  S
C410        C411   1.489       .  A
C411        C412   1.393       .  A
C411        F418   1.345       .  S
C412        C413   1.374       .  A
C412        H417   1.087       .  S
C413        C414   1.359       .  A
C414        F415   1.357       .  S
C419        C420   1.402       .  A
C419        C424   1.414       .  A
C419        H426   1.084       .  S
C420        C421   1.368       .  A
C421        C422   1.384       .  A
C421        F428   1.361       .  S
C422        C423   1.466       .  A
C422        H427   1.054       .  S
C423        C424   1.434       .  A
C424        F425   1.326       .  S
C429        C430   1.340       .  A
C429        C434   1.380       .  A
C429        H436   1.094       .  S
C430        C431   1.387       .  A
C431        C432   1.417       .  A
C431        F438   1.356       .  S
C432        C433   1.461       .  A
C432        H437   1.066       .  S
C433        C434   1.500       .  A
C434        F435   1.340       .  S
C439        C440   1.404       .  A
C439        C444   1.423       .  A
C439        H446   1.083       .  S
C440        C441   1.388       .  A
C441        C442   1.412       .  A
C441        F448   1.358       .  S
C442        C443   1.456       .  A
C442        H447   1.045       .  S
C443        C444   1.438       .  A
C444        F445   1.329       .  S
O449        C459   1.286       .  A
O450        C460   1.284       .  A
O450       Ni457   1.928       .  S
O451        C461   1.292       .  A
O451       Ni457   1.971       .  S
O452        C462   1.282       .  A
O453        C462   1.270       .  A
O453       Ni458   1.862       .  S
O454        C461   1.276       .  A
O455        C460   1.272       .  A
O456        C459   1.265       .  A
O456       Ni458   1.881       .  S
C459        C644   1.468       .  S
C460        C654   1.455       .  S
C461        C664   1.515       .  S
C462        C637   1.457       .  S
C463        C479   1.904       .  S
C463        C495   1.939       .  S
C463        C657   1.771       .  S
C463        C891   1.706       .  S
C464        C480   1.914       .  S
C464        C511   1.971       .  S
C464        C634   1.746       .  S
C464        C871   1.672       .  S
O465        C475   1.275       .  A
O466        C476   1.270       .  A
O466       Ni473   1.886   1_565  S
O467        C477   1.279       .  A
O467       Ni473   1.915   1_565  S
O468        C478   1.271       .  A
O469        C478   1.284       .  A
O470        C477   1.285       .  A
O470       Ni474   1.948       .  S
O471        C476   1.286       .  A
O471       Ni474   1.952       .  S
O472        C475   1.294       .  A
Ni473      Ni474   2.375   1_545  S
C475        C614   1.505       .  S
C476        C597   1.489       .  S
C477        C604   1.494       .  S
C478        C624   1.476       .  S
C479        C496   1.934       .  S
C479        C617   1.656       .  S
C479        C851   1.684       .  S
C480        C512   1.950       .  S
C480        C818   1.780       .  S
C480        C607   1.688       .  S
O481        C491   1.262       .  A
O481      Ni1385   1.900       .  S
O482        C492   1.263       .  A
O482       Ni489   1.885       .  S
O483        C493   1.272       .  A
O483       Ni489   1.909       .  S
O484        C494   1.279       .  A
O484      Ni1385   1.907       .  S
O485        C494   1.279       .  A
O485      Ni1386   1.921       .  S
O486        C493   1.277       .  A
O486       Ni490   1.922       .  S
O487        C492   1.291       .  A
O487       Ni490   1.945       .  S
O488        C491   1.296       .  A
O488      Ni1386   1.978       .  S
Ni489      O1377   1.900   1_455  S
Ni489      O1380   1.907   1_455  S
Ni489      Ni490   2.359       .  S
Ni490      O1381   1.921   1_455  S
Ni490      O1384   1.978   1_455  S
C491        C557   1.494       .  S
C492        C574   1.468       .  S
C493        C587   1.461       .  S
C494        C564   1.456       .  S
C495        C511   1.980       .  S
C495        C577   1.633       .  S
C495        C808   1.685       .  S
C496        C512   1.976       .  S
C496        C778   1.652       .  S
C496        C567   1.701       .  S
O497        C507   1.284       .  A
O497       Ni505   1.939   1_455  S
O498        C508   1.282       .  A
O498      Ni1401   1.929       .  S
O499        C509   1.284       .  A
O499      Ni1401   1.931       .  S
O500        C510   1.285       .  A
O500       Ni505   1.930   1_455  S
O501        C510   1.268       .  A
O501       Ni506   1.915   1_455  S
O502        C509   1.272       .  A
O502      Ni1402   1.903       .  S
O503        C508   1.269       .  A
O503      Ni1402   1.893       .  S
O504        C507   1.267       .  A
O504       Ni506   1.889   1_455  S
Ni505      O1394   1.929       .  S
Ni505      O1395   1.931       .  S
Ni505      Ni506   2.370       .  S
Ni506      O1398   1.904       .  S
Ni506      O1399   1.893       .  S
C507        C534   1.463       .  S
C508        C524   1.455       .  S
C509        C514   1.457       .  S
C510        C547   1.471       .  S
C511        C537   1.630       .  S
C511        C768   1.666       .  S
C512        C517   1.615       .  S
C512        C751   1.665       .  S
C513        C514   1.405       .  A
C513        C518   1.425       .  A
C513        H520   1.082       .  S
C514        C515   1.372       .  A
C515        C516   1.367       .  A
C515        F522   1.349       .  S
C516        C517   1.406       .  A
C516        H521   1.057       .  S
C517        C518   1.438       .  A
C518        F519   1.350       .  S
C523        C524   1.368       .  A
C523        C528   1.390       .  A
C523        H530   1.086       .  S
C524        C525   1.392       .  A
C525        C526   1.407       .  A
C525        F532   1.358       .  S
C526        C527   1.414       .  A
C526        H531   1.044       .  S
C527        C736   1.665   1_554  S
C527        C528   1.481       .  A
C528        F529   1.352   1_554  S
C533        C534   1.382       .  A
C533        C538   1.390       .  A
C533        H540   1.073       .  S
C534        C535   1.386       .  A
C535        C536   1.403       .  A
C535        F542   1.358       .  S
C536        C537   1.410       .  A
C536        H541   1.032       .  S
C537        C538   1.451       .  A
C538        F539   1.348       .  S
C543        C544   1.421       .  A
C543        C548   1.422       .  A
C543        H550   1.074       .  S
C544        C735   1.667       .  S
C544        C545   1.461       .  A
C545        C546   1.378       .  A
C545        F552   1.337       .  S
C546        C547   1.365       .  A
C546        H551   1.086       .  S
C547        C548   1.401       .  A
C548        F549   1.356       .  S
C553        C554   1.437       .  A
C553        C558   1.441       .  A
C553        H560   1.072       .  S
C554        C720   1.651       .  S
C554        C555   1.448       .  A
C555        C556   1.388       .  A
C555        F562   1.346       .  S
C556        C557   1.379       .  A
C556        H561   1.083       .  S
C557        C558   1.415       .  A
C558        F559   1.356       .  S
C563        C564   1.399       .  A
C563        C568   1.429       .  A
C563        H570   1.083       .  S
C564        C565   1.356       .  A
C565        C566   1.360       .  A
C565        F572   1.364       .  S
C566        C567   1.414       .  A
C566        H571   1.008       .  S
C567        C568   1.470       .  A
C568        F569   1.352       .  S
C573        C574   1.403       .  A
C573        C578   1.420       .  A
C573        H580   1.083       .  S
C574        C575   1.379       .  A
C575        C576   1.386       .  A
C575        F582   1.359       .  S
C576        C577   1.439       .  A
C576        H581   1.044       .  S
C577        C578   1.403       .  A
C578        F579   1.353       .  S
C583        C584   1.421       .  A
C583        C588   1.398       .  A
C583        H590   1.054       .  S
C584        C719   1.685   1_554  S
C584        C585   1.474       .  A
C585        C586   1.397       .  A
C585        F592   1.356   1_554  S
C586        C587   1.374       .  A
C586        H591   1.083       .  S
C587        C588   1.382       .  A
C588        F589   1.358       .  S
C593        C594   1.453       .  A
C593        C598   1.402       .  A
C593        H600   1.049       .  S
C594        C704   1.781   1_554  S
C594        C595   1.476       .  A
C595        C596   1.418       .  A
C595        F602   1.349       .  S
C596        C597   1.379       .  A
C596        H601   1.083       .  S
C597        C598   1.391       .  A
C598        F599   1.359       .  S
C603        C604   1.391       .  A
C603        C608   1.410       .  A
C603        H610   1.083       .  S
C604        C605   1.388       .  A
C605        C606   1.410       .  A
C605        F612   1.357       .  S
C606        C607   1.423       .  A
C606        H611   1.032       .  S
C607        C608   1.459       .  A
C608        F609   1.323       .  S
C613        C614   1.411       .  A
C613        C618   1.432       .  A
C613        H620   1.082       .  S
C614        C615   1.389       .  A
C615        C616   1.401       .  A
C615        F622   1.358       .  S
C616        C617   1.459       .  A
C616        H621   1.077       .  S
C617        C618   1.374       .  A
C618        F619   1.350       .  S
C623        C624   1.397       .  A
C623        C628   1.411       .  A
C623        H630   1.082       .  S
C624        C625   1.376       .  A
C625        C626   1.396       .  A
C625        F632   1.354       .  S
C626        C627   1.415       .  A
C626        H631   1.058       .  S
C627        C703   1.684       .  S
C627        C628   1.464       .  A
C628        F629   1.342   1_554  S
C633        C634   1.458       .  A
C633        C638   1.401       .  A
C633        H640   1.034       .  S
C634        C635   1.489       .  A
C635        C636   1.393       .  A
C635        F642   1.346       .  S
C636        C637   1.374       .  A
C636        H641   1.087       .  S
C637        C638   1.359       .  A
C638        F639   1.357       .  S
C643        C644   1.402       .  A
C643        C648   1.414       .  A
C643        H650   1.084       .  S
C644        C645   1.368       .  A
C645        C646   1.384       .  A
C645        F652   1.361       .  S
C646        C647   1.466       .  A
C646        H651   1.054       .  S
C647        C688   1.672       .  S
C647        C648   1.435       .  A
C648        F649   1.326       .  S
C653        C654   1.340       .  A
C653        C658   1.380       .  A
C653        H660   1.094       .  S
C654        C655   1.387       .  A
C655        C656   1.417       .  A
C655        F662   1.356       .  S
C656        C657   1.461       .  A
C656        H661   1.066       .  S
C657        C658   1.500       .  A
C658        F659   1.340       .  S
C663        C664   1.404       .  A
C663        C668   1.423       .  A
C663        H670   1.083       .  S
C664        C665   1.388       .  A
C665        C666   1.412       .  A
C665        F672   1.358       .  S
C666        C667   1.455       .  A
C666        H671   1.046       .  S
C667        C687   1.705   1_554  S
C667        C668   1.438       .  A
C668        F669   1.328       .  S
O673        C683   1.286       .  A
O674        C684   1.284       .  A
O674       Ni681   1.929       .  S
O675        C685   1.292       .  A
O675       Ni681   1.972       .  S
O676        C686   1.282       .  A
O677        C686   1.270       .  A
O677       Ni682   1.863       .  S
O678        C685   1.276       .  A
O679        C684   1.272       .  A
O680        C683   1.265       .  A
O680       Ni682   1.881       .  S
C683        C868   1.468       .  S
C684        C878   1.456       .  S
C685        C888   1.516       .  S
C686        C861   1.457       .  S
C687        C703   1.904   1_556  S
C687        C719   1.939       .  S
C687        C881   1.772       .  S
C688        C704   1.914   1_554  S
C688        C735   1.971       .  S
C688        C858   1.746   1_554  S
O689        C699   1.276       .  A
O690        C700   1.270       .  A
O690       Ni697   1.885   1_565  S
O691        C701   1.279       .  A
O691       Ni697   1.915   1_565  S
O692        C702   1.271       .  A
O693        C702   1.284       .  A
O694        C701   1.285       .  A
O694       Ni698   1.948       .  S
O695        C700   1.286       .  A
O695       Ni698   1.952       .  S
O696        C699   1.294       .  A
Ni697      Ni698   2.376   1_545  S
C699        C838   1.505       .  S
C700        C821   1.488       .  S
C701        C828   1.494       .  S
C702        C848   1.476       .  S
C703        C720   1.933       .  S
C703        C841   1.657   1_554  S
C704        C736   1.950       .  S
C704        C831   1.688       .  S
O705        C715   1.262       .  A
O705      Ni1609   1.899       .  S
O706        C716   1.262       .  A
O706       Ni713   1.884       .  S
O707        C717   1.272       .  A
O707       Ni713   1.908       .  S
O708        C718   1.279       .  A
O708      Ni1609   1.907       .  S
O709        C718   1.279       .  A
O709      Ni1610   1.921       .  S
O710        C717   1.277       .  A
O710       Ni714   1.922       .  S
O711        C716   1.291       .  A
O711       Ni714   1.945       .  S
O712        C715   1.296       .  A
O712      Ni1610   1.978       .  S
Ni713      O1601   1.900   1_455  S
Ni713      O1604   1.908   1_455  S
Ni713      Ni714   2.360       .  S
Ni714      O1605   1.921   1_455  S
Ni714      O1608   1.978   1_455  S
C715        C781   1.493       .  S
C716        C798   1.467       .  S
C717        C811   1.461       .  S
C718        C788   1.456       .  S
C719        C735   1.980   1_556  S
C719        C801   1.632       .  S
C720        C736   1.976   1_554  S
C720        C791   1.701   1_554  S
O721        C731   1.284       .  A
O721       Ni729   1.939   1_455  S
O722        C732   1.282       .  A
O722      Ni1625   1.928       .  S
O723        C733   1.284       .  A
O723      Ni1625   1.931       .  S
O724        C734   1.285       .  A
O724       Ni729   1.930   1_455  S
O725        C734   1.268       .  A
O725       Ni730   1.915   1_455  S
O726        C733   1.272       .  A
O726      Ni1626   1.904       .  S
O727        C732   1.269       .  A
O727      Ni1626   1.893       .  S
O728        C731   1.267       .  A
O728       Ni730   1.889   1_455  S
Ni729      O1618   1.928       .  S
Ni729      O1619   1.931       .  S
Ni729      Ni730   2.370       .  S
Ni730      O1622   1.904       .  S
Ni730      O1623   1.893       .  S
C731        C758   1.463       .  S
C732        C748   1.454       .  S
C733        C738   1.458       .  S
C734        C771   1.471       .  S
C735        C761   1.630   1_554  S
C736        C741   1.615       .  S
C737        C738   1.406       .  A
C737        C742   1.425       .  A
C737        H744   1.082       .  S
C738        C739   1.372       .  A
C739        C740   1.367       .  A
C739        F746   1.349       .  S
C740        C741   1.405       .  A
C740        H745   1.057       .  S
C741        C742   1.438       .  A
C742        F743   1.350       .  S
C747        C748   1.368       .  A
C747        C752   1.389       .  A
C747        H754   1.086       .  S
C748        C749   1.392       .  A
C749        C750   1.408       .  A
C749        F756   1.358       .  S
C750        C751   1.414       .  A
C750        H755   1.044       .  S
C751        C752   1.481       .  A
C752        F753   1.352       .  S
C757        C758   1.382       .  A
C757        C762   1.390       .  A
C757        H764   1.073       .  S
C758        C759   1.386       .  A
C759        C760   1.403       .  A
C759        F766   1.358       .  S
C760        C761   1.411       .  A
C760        H765   1.032       .  S
C761        C762   1.451       .  A
C762        F763   1.348   1_556  S
C767        C768   1.421       .  A
C767        C772   1.422       .  A
C767        H774   1.074       .  S
C768        C769   1.462       .  A
C769        C770   1.378       .  A
C769        F776   1.337       .  S
C770        C771   1.365       .  A
C770        H775   1.086       .  S
C771        C772   1.401       .  A
C772        F773   1.356       .  S
C777        C778   1.438       .  A
C777        C782   1.441       .  A
C777        H784   1.072       .  S
C778        C779   1.448       .  A
C779        C780   1.388       .  A
C779        F786   1.346       .  S
C780        C781   1.379       .  A
C780        H785   1.083       .  S
C781        C782   1.414       .  A
C782        F783   1.356       .  S
C787        C788   1.399       .  A
C787        C792   1.429       .  A
C787        H794   1.083       .  S
C788        C789   1.356       .  A
C789        C790   1.360       .  A
C789        F796   1.364       .  S
C790        C791   1.414       .  A
C790        H795   1.009       .  S
C791        C792   1.470       .  A
C792        F793   1.352   1_556  S
C797        C798   1.403       .  A
C797        C802   1.420       .  A
C797        H804   1.083       .  S
C798        C799   1.378       .  A
C799        C800   1.386       .  A
C799        F806   1.359       .  S
C800        C801   1.439       .  A
C800        H805   1.044       .  S
C801        C802   1.402       .  A
C802        F803   1.353       .  S
C807        C808   1.421       .  A
C807        C812   1.398       .  A
C807        H814   1.054       .  S
C808        C809   1.474       .  A
C809        C810   1.397       .  A
C809        F816   1.356       .  S
C810        C811   1.374       .  A
C810        H815   1.083       .  S
C811        C812   1.382       .  A
C812        F813   1.358       .  S
C817        C818   1.453       .  A
C817        C822   1.402       .  A
C817        H824   1.049       .  S
C818        C819   1.475       .  A
C819        C820   1.418       .  A
C819        F826   1.349       .  S
C820        C821   1.379       .  A
C820        H825   1.083       .  S
C821        C822   1.391       .  A
C822        F823   1.359       .  S
C827        C828   1.391       .  A
C827        C832   1.410       .  A
C827        H834   1.083       .  S
C828        C829   1.388       .  A
C829        C830   1.410       .  A
C829        F836   1.357       .  S
C830        C831   1.423       .  A
C830        H835   1.032       .  S
C831        C832   1.458       .  A
C832        F833   1.323       .  S
C837        C838   1.411       .  A
C837        C842   1.432       .  A
C837        H844   1.082       .  S
C838        C839   1.389       .  A
C839        C840   1.402       .  A
C839        F846   1.358       .  S
C840        C841   1.459       .  A
C840        H845   1.077       .  S
C841        C842   1.374       .  A
C842        F843   1.350       .  S
C847        C848   1.397       .  A
C847        C852   1.411       .  A
C847        H854   1.082       .  S
C848        C849   1.376       .  A
C849        C850   1.396       .  A
C849        F856   1.354       .  S
C850        C851   1.415       .  A
C850        H855   1.058       .  S
C851        C852   1.464       .  A
C852        F853   1.342       .  S
C857        C858   1.458       .  A
C857        C862   1.401       .  A
C857        H864   1.034       .  S
C858        C859   1.489       .  A
C859        C860   1.393       .  A
C859        F866   1.345       .  S
C860        C861   1.374       .  A
C860        H865   1.087       .  S
C861        C862   1.359       .  A
C862        F863   1.357       .  S
C867        C868   1.402       .  A
C867        C872   1.414       .  A
C867        H874   1.084       .  S
C868        C869   1.368       .  A
C869        C870   1.384       .  A
C869        F876   1.361       .  S
C870        C871   1.466       .  A
C870        H875   1.054       .  S
C871        C872   1.434       .  A
C872        F873   1.326       .  S
C877        C878   1.340       .  A
C877        C882   1.381       .  A
C877        H884   1.094       .  S
C878        C879   1.387       .  A
C879        C880   1.418       .  A
C879        F886   1.356       .  S
C880        C881   1.461       .  A
C880        H885   1.066       .  S
C881        C882   1.500       .  A
C882        F883   1.340       .  S
C887        C888   1.404       .  A
C887        C892   1.423       .  A
C887        H894   1.083       .  S
C888        C889   1.388       .  A
C889        C890   1.412       .  A
C889        F896   1.358       .  S
C890        C891   1.456       .  A
C890        H895   1.045       .  S
C891        C892   1.438       .  A
C892        F893   1.329       .  S
O897        C907   1.286       .  A
O897      Ni1353   1.940       .  S
O898        C908   1.284       .  A
O898       Ni905   1.929       .  S
O899        C909   1.292       .  A
O899       Ni905   1.971       .  S
O900        C910   1.282       .  A
O900      Ni1353   1.932       .  S
O901        C910   1.269       .  A
O901       Ni906   1.862       .  S
O902        C909   1.276       .  A
O902      Ni1354   1.922   1_545  S
O903        C908   1.272       .  A
O903      Ni1354   1.881   1_545  S
O904        C907   1.265       .  A
O904       Ni906   1.882       .  S
Ni905      O1345   1.940   1_545  S
Ni905      O1348   1.932   1_545  S
Ni905     Ni1354   2.382   1_545  S
Ni906      O1350   1.923       .  S
Ni906      O1351   1.881       .  S
Ni906     Ni1353   2.382       .  S
C907       C1092   1.469       .  S
C908       C1102   1.455       .  S
C909       C1112   1.515       .  S
C910       C1085   1.457       .  S
C911        C927   1.904       .  S
C911        C943   1.939       .  S
C911       C1105   1.771       .  S
C911       C1339   1.705       .  S
C912        C928   1.914       .  S
C912        C959   1.971       .  S
C912       C1082   1.745       .  S
C912       C1319   1.672       .  S
O913        C923   1.276       .  A
O913      Ni1369   1.920       .  S
O914        C924   1.270       .  A
O914       Ni921   1.885       .  S
O915        C925   1.279       .  A
O915       Ni921   1.915       .  S
O916        C926   1.271       .  A
O916      Ni1369   1.900       .  S
O917        C926   1.284       .  A
O917      Ni1370   1.938   1_545  S
O918        C925   1.285       .  A
O918       Ni922   1.948       .  S
O919        C924   1.286       .  A
O919       Ni922   1.952       .  S
O920        C923   1.294       .  A
O920      Ni1370   1.970   1_545  S
Ni921      O1361   1.920       .  S
Ni921      O1364   1.900       .  S
Ni921      Ni922   2.375       .  S
Ni922      O1365   1.938       .  S
Ni922      O1368   1.971       .  S
C923       C1062   1.505       .  S
C924       C1045   1.489       .  S
C925       C1052   1.495       .  S
C926       C1072   1.476       .  S
C927        C944   1.933       .  S
C927       C1065   1.656       .  S
C927       C1299   1.684       .  S
C928        C960   1.950       .  S
C928       C1266   1.781       .  S
C928       C1055   1.688       .  S
O929        C939   1.262       .  A
O930        C940   1.263       .  A
O930       Ni937   1.884       .  S
O931        C941   1.272       .  A
O931       Ni937   1.909       .  S
O932        C942   1.279       .  A
O933        C942   1.279       .  A
O934        C941   1.277       .  A
O934       Ni938   1.922       .  S
O935        C940   1.291       .  A
O935       Ni938   1.945       .  S
O936        C939   1.296       .  A
Ni937      Ni938   2.359       .  S
C939       C1005   1.494       .  S
C940       C1022   1.467       .  S
C941       C1035   1.461       .  S
C942       C1012   1.456       .  S
C943        C959   1.980       .  S
C943       C1025   1.633       .  S
C943       C1256   1.685       .  S
C944        C960   1.976       .  S
C944       C1226   1.652       .  S
C944       C1015   1.701       .  S
O945        C955   1.284       .  A
O945       Ni953   1.939       .  S
O946        C956   1.282       .  A
O947        C957   1.284       .  A
O948        C958   1.285       .  A
O948       Ni953   1.930       .  S
O949        C958   1.268       .  A
O949       Ni954   1.915       .  S
O950        C957   1.272       .  A
O951        C956   1.269       .  A
O952        C955   1.267       .  A
O952       Ni954   1.889       .  S
Ni953      Ni954   2.370       .  S
C955        C982   1.463       .  S
C956        C972   1.454       .  S
C957        C962   1.457       .  S
C958        C995   1.471       .  S
C959        C985   1.630       .  S
C959       C1216   1.666       .  S
C960        C965   1.615       .  S
C960       C1199   1.664       .  S
C961        C962   1.405       .  A
C961        C966   1.425       .  A
C961        H968   1.082       .  S
C962        C963   1.372       .  A
C963        C964   1.367       .  A
C963        F970   1.349       .  S
C964        C965   1.405       .  A
C964        H969   1.057       .  S
C965        C966   1.438       .  A
C966        F967   1.350       .  S
C971        C972   1.368       .  A
C971        C976   1.389       .  A
C971        H978   1.086       .  S
C972        C973   1.392       .  A
C973        C974   1.407       .  A
C973        F980   1.358       .  S
C974        C975   1.413       .  A
C974        H979   1.044       .  S
C975       C1184   1.664   1_554  S
C975        C976   1.481       .  A
C976        F977   1.352   1_554  S
C981        C982   1.382       .  A
C981        C986   1.390       .  A
C981        H988   1.073       .  S
C982        C983   1.386       .  A
C983        C984   1.403       .  A
C983        F990   1.358       .  S
C984        C985   1.410       .  A
C984        H989   1.032       .  S
C985        C986   1.451       .  A
C986        F987   1.348       .  S
C991        C992   1.421       .  A
C991        C996   1.422       .  A
C991        H998   1.074       .  S
C992       C1183   1.667       .  S
C992        C993   1.461       .  A
C993        C994   1.378       .  A
C993       F1000   1.337       .  S
C994        C995   1.365       .  A
C994        H999   1.086       .  S
C995        C996   1.401       .  A
C996        F997   1.356       .  S
C1001      C1002   1.438       .  A
C1001      C1006   1.441       .  A
C1001      H1008   1.072       .  S
C1002      C1168   1.651       .  S
C1002      C1003   1.448       .  A
C1003      C1004   1.388       .  A
C1003      F1010   1.346       .  S
C1004      C1005   1.380       .  A
C1004      H1009   1.083       .  S
C1005      C1006   1.414       .  A
C1006      F1007   1.356       .  S
C1011      C1012   1.399       .  A
C1011      C1016   1.429       .  A
C1011      H1018   1.083       .  S
C1012      C1013   1.356       .  A
C1013      C1014   1.360       .  A
C1013      F1020   1.364       .  S
C1014      C1015   1.415       .  A
C1014      H1019   1.009       .  S
C1015      C1016   1.470       .  A
C1016      F1017   1.352       .  S
C1021      C1022   1.403       .  A
C1021      C1026   1.420       .  A
C1021      H1028   1.083       .  S
C1022      C1023   1.378       .  A
C1023      C1024   1.387       .  A
C1023      F1030   1.359       .  S
C1024      C1025   1.440       .  A
C1024      H1029   1.040       .  S
C1025      C1026   1.403       .  A
C1026      F1027   1.353       .  S
C1031      C1032   1.421       .  A
C1031      C1036   1.398       .  A
C1031      H1038   1.054       .  S
C1032      C1167   1.685   1_554  S
C1032      C1033   1.474       .  A
C1033      C1034   1.397       .  A
C1033      F1040   1.356   1_554  S
C1034      C1035   1.374       .  A
C1034      H1039   1.083       .  S
C1035      C1036   1.382       .  A
C1036      F1037   1.358       .  S
C1041      C1042   1.453       .  A
C1041      C1046   1.403       .  A
C1041      H1048   1.049       .  S
C1042      C1152   1.781   1_554  S
C1042      C1043   1.476       .  A
C1043      C1044   1.418       .  A
C1043      F1050   1.349       .  S
C1044      C1045   1.379       .  A
C1044      H1049   1.083       .  S
C1045      C1046   1.391       .  A
C1046      F1047   1.359       .  S
C1051      C1052   1.391       .  A
C1051      C1056   1.410       .  A
C1051      H1058   1.083       .  S
C1052      C1053   1.388       .  A
C1053      C1054   1.410       .  A
C1053      F1060   1.357       .  S
C1054      C1055   1.423       .  A
C1054      H1059   1.033       .  S
C1055      C1056   1.458       .  A
C1056      F1057   1.323       .  S
C1061      C1062   1.411       .  A
C1061      C1066   1.432       .  A
C1061      H1068   1.082       .  S
C1062      C1063   1.389       .  A
C1063      C1064   1.402       .  A
C1063      F1070   1.358       .  S
C1064      C1065   1.459       .  A
C1064      H1069   1.077       .  S
C1065      C1066   1.373       .  A
C1066      F1067   1.350       .  S
C1071      C1072   1.397       .  A
C1071      C1076   1.411       .  A
C1071      H1078   1.082       .  S
C1072      C1073   1.376       .  A
C1073      C1074   1.396       .  A
C1073      F1080   1.354       .  S
C1074      C1075   1.415       .  A
C1074      H1079   1.058       .  S
C1075      C1151   1.684       .  S
C1075      C1076   1.464       .  A
C1076      F1077   1.342   1_554  S
C1081      C1082   1.457       .  A
C1081      C1086   1.401       .  A
C1081      H1088   1.034       .  S
C1082      C1083   1.489       .  A
C1083      C1084   1.393       .  A
C1083      F1090   1.345       .  S
C1084      C1085   1.374       .  A
C1084      H1089   1.087       .  S
C1085      C1086   1.359       .  A
C1086      F1087   1.357       .  S
C1091      C1092   1.402       .  A
C1091      C1096   1.414       .  A
C1091      H1098   1.084       .  S
C1092      C1093   1.368       .  A
C1093      C1094   1.384       .  A
C1093      F1100   1.361       .  S
C1094      C1095   1.466       .  A
C1094      H1099   1.054       .  S
C1095      C1136   1.672       .  S
C1095      C1096   1.435       .  A
C1096      F1097   1.326       .  S
C1101      C1102   1.340       .  A
C1101      C1106   1.380       .  A
C1101      H1108   1.094       .  S
C1102      C1103   1.387       .  A
C1103      C1104   1.417       .  A
C1103      F1110   1.356       .  S
C1104      C1105   1.461       .  A
C1104      H1109   1.066       .  S
C1105      C1106   1.500       .  A
C1106      F1107   1.340       .  S
C1111      C1112   1.404       .  A
C1111      C1116   1.423       .  A
C1111      H1118   1.083       .  S
C1112      C1113   1.388       .  A
C1113      C1114   1.412       .  A
C1113      F1120   1.358       .  S
C1114      C1115   1.456       .  A
C1114      H1119   1.046       .  S
C1115      C1135   1.705   1_554  S
C1115      C1116   1.438       .  A
C1116      F1117   1.328       .  S
O1121      C1131   1.286       .  A
O1121     Ni1577   1.940       .  S
O1122      C1132   1.284       .  A
O1122     Ni1129   1.928       .  S
O1123      C1133   1.292       .  A
O1123     Ni1129   1.971       .  S
O1124      C1134   1.282       .  A
O1124     Ni1577   1.933       .  S
O1125      C1134   1.270       .  A
O1125     Ni1130   1.862       .  S
O1126      C1133   1.276       .  A
O1126     Ni1578   1.923   1_545  S
O1127      C1132   1.272       .  A
O1127     Ni1578   1.881   1_545  S
O1128      C1131   1.265       .  A
O1128     Ni1130   1.882       .  S
Ni1129     O1569   1.940   1_545  S
Ni1129     O1572   1.933   1_545  S
Ni1129    Ni1578   2.382   1_545  S
Ni1130     O1574   1.923       .  S
Ni1130     O1575   1.882       .  S
Ni1130    Ni1577   2.382       .  S
C1131      C1316   1.469       .  S
C1132      C1326   1.455       .  S
C1133      C1336   1.515       .  S
C1134      C1309   1.457       .  S
C1135      C1151   1.904   1_556  S
C1135      C1167   1.939       .  S
C1135      C1329   1.771       .  S
C1136      C1152   1.914   1_554  S
C1136      C1183   1.971       .  S
C1136      C1306   1.746   1_554  S
O1137      C1147   1.276       .  A
O1137     Ni1593   1.920       .  S
O1138      C1148   1.270       .  A
O1138     Ni1145   1.885       .  S
O1139      C1149   1.279       .  A
O1139     Ni1145   1.915       .  S
O1140      C1150   1.271       .  A
O1140     Ni1593   1.900       .  S
O1141      C1150   1.284       .  A
O1141     Ni1594   1.938   1_545  S
O1142      C1149   1.286       .  A
O1142     Ni1146   1.949       .  S
O1143      C1148   1.286       .  A
O1143     Ni1146   1.952       .  S
O1144      C1147   1.294       .  A
O1144     Ni1594   1.970   1_545  S
Ni1145     O1585   1.920       .  S
Ni1145     O1588   1.900       .  S
Ni1145    Ni1146   2.375       .  S
Ni1146     O1589   1.938       .  S
Ni1146     O1592   1.970       .  S
C1147      C1286   1.504       .  S
C1148      C1269   1.489       .  S
C1149      C1276   1.495       .  S
C1150      C1296   1.476       .  S
C1151      C1168   1.933       .  S
C1151      C1289   1.656   1_554  S
C1152      C1184   1.950       .  S
C1152      C1279   1.688       .  S
O1153      C1163   1.262       .  A
O1154      C1164   1.263       .  A
O1154     Ni1161   1.884       .  S
O1155      C1165   1.272       .  A
O1155     Ni1161   1.909       .  S
O1156      C1166   1.279       .  A
O1157      C1166   1.279       .  A
O1158      C1165   1.277       .  A
O1158     Ni1162   1.922       .  S
O1159      C1164   1.291       .  A
O1159     Ni1162   1.945       .  S
O1160      C1163   1.296       .  A
Ni1161    Ni1162   2.359       .  S
C1163      C1229   1.494       .  S
C1164      C1246   1.467       .  S
C1165      C1259   1.461       .  S
C1166      C1236   1.457       .  S
C1167      C1183   1.980   1_556  S
C1167      C1249   1.632       .  S
C1168      C1184   1.976   1_554  S
C1168      C1239   1.701   1_554  S
O1169      C1179   1.284       .  A
O1169     Ni1177   1.939       .  S
O1170      C1180   1.282       .  A
O1171      C1181   1.284       .  A
O1172      C1182   1.285       .  A
O1172     Ni1177   1.930       .  S
O1173      C1182   1.268       .  A
O1173     Ni1178   1.915       .  S
O1174      C1181   1.272       .  A
O1175      C1180   1.269       .  A
O1176      C1179   1.267       .  A
O1176     Ni1178   1.889       .  S
Ni1177    Ni1178   2.370       .  S
C1179      C1206   1.463       .  S
C1180      C1196   1.454       .  S
C1181      C1186   1.457       .  S
C1182      C1219   1.471       .  S
C1183      C1209   1.630   1_554  S
C1184      C1189   1.615       .  S
C1185      C1186   1.406       .  A
C1185      C1190   1.425       .  A
C1185      H1192   1.082       .  S
C1186      C1187   1.372       .  A
C1187      C1188   1.367       .  A
C1187      F1194   1.349       .  S
C1188      C1189   1.405       .  A
C1188      H1193   1.057       .  S
C1189      C1190   1.438       .  A
C1190      F1191   1.350       .  S
C1195      C1196   1.368       .  A
C1195      C1200   1.389       .  A
C1195      H1202   1.086       .  S
C1196      C1197   1.392       .  A
C1197      C1198   1.408       .  A
C1197      F1204   1.358       .  S
C1198      C1199   1.414       .  A
C1198      H1203   1.044       .  S
C1199      C1200   1.481       .  A
C1200      F1201   1.352       .  S
C1205      C1206   1.382       .  A
C1205      C1210   1.389       .  A
C1205      H1212   1.073       .  S
C1206      C1207   1.386       .  A
C1207      C1208   1.403       .  A
C1207      F1214   1.358       .  S
C1208      C1209   1.410       .  A
C1208      H1213   1.032       .  S
C1209      C1210   1.451       .  A
C1210      F1211   1.348   1_556  S
C1215      C1216   1.421       .  A
C1215      C1220   1.422       .  A
C1215      H1222   1.074       .  S
C1216      C1217   1.461       .  A
C1217      C1218   1.378       .  A
C1217      F1224   1.337       .  S
C1218      C1219   1.365       .  A
C1218      H1223   1.086       .  S
C1219      C1220   1.401       .  A
C1220      F1221   1.356       .  S
C1225      C1226   1.438       .  A
C1225      C1230   1.441       .  A
C1225      H1232   1.072       .  S
C1226      C1227   1.448       .  A
C1227      C1228   1.388       .  A
C1227      F1234   1.346       .  S
C1228      C1229   1.380       .  A
C1228      H1233   1.083       .  S
C1229      C1230   1.414       .  A
C1230      F1231   1.356       .  S
C1235      C1236   1.399       .  A
C1235      C1240   1.429       .  A
C1235      H1242   1.083       .  S
C1236      C1237   1.356       .  A
C1237      C1238   1.361       .  A
C1237      F1244   1.364       .  S
C1238      C1239   1.415       .  A
C1238      H1243   1.009       .  S
C1239      C1240   1.470       .  A
C1240      F1241   1.352   1_556  S
C1245      C1246   1.403       .  A
C1245      C1250   1.420       .  A
C1245      H1252   1.083       .  S
C1246      C1247   1.378       .  A
C1247      C1248   1.386       .  A
C1247      F1254   1.359       .  S
C1248      C1249   1.439       .  A
C1248      H1253   1.044       .  S
C1249      C1250   1.403       .  A
C1250      F1251   1.353       .  S
C1255      C1256   1.421       .  A
C1255      C1260   1.398       .  A
C1255      H1262   1.053       .  S
C1256      C1257   1.474       .  A
C1257      C1258   1.397       .  A
C1257      F1264   1.356       .  S
C1258      C1259   1.375       .  A
C1258      H1263   1.083       .  S
C1259      C1260   1.382       .  A
C1260      F1261   1.358       .  S
C1265      C1266   1.453       .  A
C1265      C1270   1.402       .  A
C1265      H1272   1.049       .  S
C1266      C1267   1.476       .  A
C1267      C1268   1.418       .  A
C1267      F1274   1.349       .  S
C1268      C1269   1.379       .  A
C1268      H1273   1.083       .  S
C1269      C1270   1.391       .  A
C1270      F1271   1.359       .  S
C1275      C1276   1.391       .  A
C1275      C1280   1.410       .  A
C1275      H1282   1.083       .  S
C1276      C1277   1.388       .  A
C1277      C1278   1.411       .  A
C1277      F1284   1.357       .  S
C1278      C1279   1.423       .  A
C1278      H1283   1.032       .  S
C1279      C1280   1.459       .  A
C1280      F1281   1.323       .  S
C1285      C1286   1.411       .  A
C1285      C1290   1.432       .  A
C1285      H1292   1.082       .  S
C1286      C1287   1.389       .  A
C1287      C1288   1.401       .  A
C1287      F1294   1.358       .  S
C1288      C1289   1.459       .  A
C1288      H1293   1.077       .  S
C1289      C1290   1.373       .  A
C1290      F1291   1.350       .  S
C1295      C1296   1.397       .  A
C1295      C1300   1.411       .  A
C1295      H1302   1.082       .  S
C1296      C1297   1.376       .  A
C1297      C1298   1.396       .  A
C1297      F1304   1.354       .  S
C1298      C1299   1.415       .  A
C1298      H1303   1.058       .  S
C1299      C1300   1.464       .  A
C1300      F1301   1.342       .  S
C1305      C1306   1.458       .  A
C1305      C1310   1.401       .  A
C1305      H1312   1.034       .  S
C1306      C1307   1.489       .  A
C1307      C1308   1.393       .  A
C1307      F1314   1.346       .  S
C1308      C1309   1.374       .  A
C1308      H1313   1.087       .  S
C1309      C1310   1.359       .  A
C1310      F1311   1.357       .  S
C1315      C1316   1.402       .  A
C1315      C1320   1.414       .  A
C1315      H1322   1.084       .  S
C1316      C1317   1.368       .  A
C1317      C1318   1.384       .  A
C1317      F1324   1.361       .  S
C1318      C1319   1.466       .  A
C1318      H1323   1.054       .  S
C1319      C1320   1.434       .  A
C1320      F1321   1.326       .  S
C1325      C1326   1.340       .  A
C1325      C1330   1.380       .  A
C1325      H1332   1.094       .  S
C1326      C1327   1.386       .  A
C1327      C1328   1.417       .  A
C1327      F1334   1.356       .  S
C1328      C1329   1.461       .  A
C1328      H1333   1.066       .  S
C1329      C1330   1.500       .  A
C1330      F1331   1.340       .  S
C1335      C1336   1.404       .  A
C1335      C1340   1.423       .  A
C1335      H1342   1.083       .  S
C1336      C1337   1.388       .  A
C1337      C1338   1.412       .  A
C1337      F1344   1.358       .  S
C1338      C1339   1.457       .  A
C1338      H1343   1.042       .  S
C1339      C1340   1.438       .  A
C1340      F1341   1.329       .  S
O1345      C1355   1.286       .  A
O1346      C1356   1.284       .  A
O1346     Ni1353   1.929       .  S
O1347      C1357   1.292       .  A
O1347     Ni1353   1.971       .  S
O1348      C1358   1.282       .  A
O1349      C1358   1.270       .  A
O1349     Ni1354   1.862       .  S
O1350      C1357   1.276       .  A
O1351      C1356   1.272       .  A
O1352      C1355   1.265       .  A
O1352     Ni1354   1.881       .  S
C1355      C1540   1.468       .  S
C1356      C1550   1.455       .  S
C1357      C1560   1.515       .  S
C1358      C1533   1.457       .  S
C1359      C1375   1.904       .  S
C1359      C1391   1.939       .  S
C1359      C1553   1.771       .  S
C1359      C1787   1.706       .  S
C1360      C1376   1.914       .  S
C1360      C1407   1.971       .  S
C1360      C1530   1.745       .  S
C1360      C1767   1.672       .  S
O1361      C1371   1.275       .  A
O1362      C1372   1.270       .  A
O1362     Ni1369   1.886   1_565  S
O1363      C1373   1.279       .  A
O1363     Ni1369   1.915   1_565  S
O1364      C1374   1.271       .  A
O1365      C1374   1.284       .  A
O1366      C1373   1.285       .  A
O1366     Ni1370   1.948       .  S
O1367      C1372   1.286       .  A
O1367     Ni1370   1.952       .  S
O1368      C1371   1.294       .  A
Ni1369    Ni1370   2.375   1_545  S
C1371      C1510   1.505       .  S
C1372      C1493   1.489       .  S
C1373      C1500   1.494       .  S
C1374      C1520   1.476       .  S
C1375      C1392   1.934       .  S
C1375      C1513   1.656       .  S
C1375      C1747   1.684       .  S
C1376      C1408   1.950       .  S
C1376      C1714   1.781       .  S
C1376      C1503   1.688       .  S
O1377      C1387   1.262       .  A
O1378      C1388   1.263       .  A
O1378     Ni1385   1.884       .  S
O1379      C1389   1.272       .  A
O1379     Ni1385   1.908       .  S
O1380      C1390   1.279       .  A
O1381      C1390   1.279       .  A
O1382      C1389   1.277       .  A
O1382     Ni1386   1.922       .  S
O1383      C1388   1.291       .  A
O1383     Ni1386   1.945       .  S
O1384      C1387   1.296       .  A
Ni1385    Ni1386   2.359       .  S
C1387      C1453   1.493       .  S
C1388      C1470   1.467       .  S
C1389      C1483   1.461       .  S
C1390      C1460   1.456       .  S
C1391      C1407   1.980       .  S
C1391      C1473   1.633       .  S
C1391      C1704   1.685       .  S
C1392      C1408   1.976       .  S
C1392      C1674   1.652       .  S
C1392      C1463   1.701       .  S
O1393      C1403   1.284       .  A
O1393     Ni1401   1.939       .  S
O1394      C1404   1.282       .  A
O1395      C1405   1.284       .  A
O1396      C1406   1.285       .  A
O1396     Ni1401   1.930       .  S
O1397      C1406   1.268       .  A
O1397     Ni1402   1.915       .  S
O1398      C1405   1.272       .  A
O1399      C1404   1.269       .  A
O1400      C1403   1.267       .  A
O1400     Ni1402   1.889       .  S
Ni1401    Ni1402   2.370       .  S
C1403      C1430   1.463       .  S
C1404      C1420   1.455       .  S
C1405      C1410   1.458       .  S
C1406      C1443   1.471       .  S
C1407      C1433   1.630       .  S
C1407      C1664   1.666       .  S
C1408      C1413   1.615       .  S
C1408      C1647   1.665       .  S
C1409      C1410   1.405       .  A
C1409      C1414   1.425       .  A
C1409      H1416   1.082       .  S
C1410      C1411   1.373       .  A
C1411      C1412   1.367       .  A
C1411      F1418   1.349       .  S
C1412      C1413   1.405       .  A
C1412      H1417   1.057       .  S
C1413      C1414   1.438       .  A
C1414      F1415   1.350       .  S
C1419      C1420   1.369       .  A
C1419      C1424   1.390       .  A
C1419      H1426   1.086       .  S
C1420      C1421   1.392       .  A
C1421      C1422   1.407       .  A
C1421      F1428   1.358       .  S
C1422      C1423   1.414       .  A
C1422      H1427   1.044       .  S
C1423      C1632   1.665   1_554  S
C1423      C1424   1.481       .  A
C1424      F1425   1.352   1_554  S
C1429      C1430   1.383       .  A
C1429      C1434   1.390       .  A
C1429      H1436   1.073       .  S
C1430      C1431   1.386       .  A
C1431      C1432   1.403       .  A
C1431      F1438   1.358       .  S
C1432      C1433   1.410       .  A
C1432      H1437   1.032       .  S
C1433      C1434   1.451       .  A
C1434      F1435   1.348       .  S
C1439      C1440   1.421       .  A
C1439      C1444   1.422       .  A
C1439      H1446   1.074       .  S
C1440      C1631   1.667       .  S
C1440      C1441   1.461       .  A
C1441      C1442   1.378       .  A
C1441      F1448   1.337       .  S
C1442      C1443   1.365       .  A
C1442      H1447   1.086       .  S
C1443      C1444   1.401       .  A
C1444      F1445   1.356       .  S
C1449      C1450   1.437       .  A
C1449      C1454   1.441       .  A
C1449      H1456   1.072       .  S
C1450      C1616   1.651       .  S
C1450      C1451   1.448       .  A
C1451      C1452   1.388       .  A
C1451      F1458   1.346       .  S
C1452      C1453   1.379       .  A
C1452      H1457   1.083       .  S
C1453      C1454   1.415       .  A
C1454      F1455   1.356       .  S
C1459      C1460   1.399       .  A
C1459      C1464   1.429       .  A
C1459      H1466   1.083       .  S
C1460      C1461   1.356       .  A
C1461      C1462   1.360       .  A
C1461      F1468   1.364       .  S
C1462      C1463   1.414       .  A
C1462      H1467   1.009       .  S
C1463      C1464   1.470       .  A
C1464      F1465   1.352       .  S
C1469      C1470   1.403       .  A
C1469      C1474   1.420       .  A
C1469      H1476   1.083       .  S
C1470      C1471   1.379       .  A
C1471      C1472   1.386       .  A
C1471      F1478   1.359       .  S
C1472      C1473   1.439       .  A
C1472      H1477   1.044       .  S
C1473      C1474   1.403       .  A
C1474      F1475   1.353       .  S
C1479      C1480   1.421       .  A
C1479      C1484   1.398       .  A
C1479      H1486   1.054       .  S
C1480      C1615   1.685   1_554  S
C1480      C1481   1.474       .  A
C1481      C1482   1.397       .  A
C1481      F1488   1.356   1_554  S
C1482      C1483   1.374       .  A
C1482      H1487   1.083       .  S
C1483      C1484   1.382       .  A
C1484      F1485   1.358       .  S
C1489      C1490   1.453       .  A
C1489      C1494   1.403       .  A
C1489      H1496   1.049       .  S
C1490      C1600   1.781   1_554  S
C1490      C1491   1.476       .  A
C1491      C1492   1.418       .  A
C1491      F1498   1.349       .  S
C1492      C1493   1.379       .  A
C1492      H1497   1.083       .  S
C1493      C1494   1.391       .  A
C1494      F1495   1.359       .  S
C1499      C1500   1.391       .  A
C1499      C1504   1.410       .  A
C1499      H1506   1.083       .  S
C1500      C1501   1.388       .  A
C1501      C1502   1.410       .  A
C1501      F1508   1.357       .  S
C1502      C1503   1.423       .  A
C1502      H1507   1.032       .  S
C1503      C1504   1.459       .  A
C1504      F1505   1.323       .  S
C1509      C1510   1.411       .  A
C1509      C1514   1.432       .  A
C1509      H1516   1.082       .  S
C1510      C1511   1.389       .  A
C1511      C1512   1.402       .  A
C1511      F1518   1.358       .  S
C1512      C1513   1.459       .  A
C1512      H1517   1.077       .  S
C1513      C1514   1.374       .  A
C1514      F1515   1.350       .  S
C1519      C1520   1.397       .  A
C1519      C1524   1.411       .  A
C1519      H1526   1.082       .  S
C1520      C1521   1.376       .  A
C1521      C1522   1.396       .  A
C1521      F1528   1.354       .  S
C1522      C1523   1.415       .  A
C1522      H1527   1.058       .  S
C1523      C1599   1.685       .  S
C1523      C1524   1.464       .  A
C1524      F1525   1.342   1_554  S
C1529      C1530   1.458       .  A
C1529      C1534   1.401       .  A
C1529      H1536   1.034       .  S
C1530      C1531   1.489       .  A
C1531      C1532   1.393       .  A
C1531      F1538   1.345       .  S
C1532      C1533   1.374       .  A
C1532      H1537   1.087       .  S
C1533      C1534   1.359       .  A
C1534      F1535   1.357       .  S
C1539      C1540   1.402       .  A
C1539      C1544   1.414       .  A
C1539      H1546   1.084       .  S
C1540      C1541   1.368       .  A
C1541      C1542   1.383       .  A
C1541      F1548   1.361       .  S
C1542      C1543   1.466       .  A
C1542      H1547   1.054       .  S
C1543      C1584   1.672       .  S
C1543      C1544   1.435       .  A
C1544      F1545   1.326       .  S
C1549      C1550   1.340       .  A
C1549      C1554   1.380       .  A
C1549      H1556   1.094       .  S
C1550      C1551   1.387       .  A
C1551      C1552   1.417       .  A
C1551      F1558   1.356       .  S
C1552      C1553   1.461       .  A
C1552      H1557   1.066       .  S
C1553      C1554   1.500       .  A
C1554      F1555   1.340       .  S
C1559      C1560   1.404       .  A
C1559      C1564   1.423       .  A
C1559      H1566   1.083       .  S
C1560      C1561   1.388       .  A
C1561      C1562   1.412       .  A
C1561      F1568   1.358       .  S
C1562      C1563   1.456       .  A
C1562      H1567   1.046       .  S
C1563      C1583   1.705   1_554  S
C1563      C1564   1.438       .  A
C1564      F1565   1.328       .  S
O1569      C1579   1.286       .  A
O1570      C1580   1.284       .  A
O1570     Ni1577   1.929       .  S
O1571      C1581   1.292       .  A
O1571     Ni1577   1.971       .  S
O1572      C1582   1.282       .  A
O1573      C1582   1.270       .  A
O1573     Ni1578   1.862       .  S
O1574      C1581   1.276       .  A
O1575      C1580   1.272       .  A
O1576      C1579   1.265       .  A
O1576     Ni1578   1.881       .  S
C1579      C1764   1.468       .  S
C1580      C1774   1.456       .  S
C1581      C1784   1.516       .  S
C1582      C1757   1.457       .  S
C1583      C1599   1.904   1_556  S
C1583      C1615   1.939       .  S
C1583      C1777   1.771       .  S
C1584      C1600   1.914   1_554  S
C1584      C1631   1.971       .  S
C1584      C1754   1.746   1_554  S
O1585      C1595   1.276       .  A
O1586      C1596   1.270       .  A
O1586     Ni1593   1.885   1_565  S
O1587      C1597   1.279       .  A
O1587     Ni1593   1.915   1_565  S
O1588      C1598   1.271       .  A
O1589      C1598   1.284       .  A
O1590      C1597   1.285       .  A
O1590     Ni1594   1.948       .  S
O1591      C1596   1.286       .  A
O1591     Ni1594   1.952       .  S
O1592      C1595   1.294       .  A
Ni1593    Ni1594   2.375   1_545  S
C1595      C1734   1.505       .  S
C1596      C1717   1.489       .  S
C1597      C1724   1.494       .  S
C1598      C1744   1.476       .  S
C1599      C1616   1.933       .  S
C1599      C1737   1.656   1_554  S
C1600      C1632   1.950       .  S
C1600      C1727   1.688       .  S
O1601      C1611   1.262       .  A
O1602      C1612   1.262       .  A
O1602     Ni1609   1.884       .  S
O1603      C1613   1.272       .  A
O1603     Ni1609   1.908       .  S
O1604      C1614   1.279       .  A
O1605      C1614   1.279       .  A
O1606      C1613   1.277       .  A
O1606     Ni1610   1.922       .  S
O1607      C1612   1.291       .  A
O1607     Ni1610   1.945       .  S
O1608      C1611   1.296       .  A
Ni1609    Ni1610   2.360       .  S
C1611      C1677   1.494       .  S
C1612      C1694   1.467       .  S
C1613      C1707   1.461       .  S
C1614      C1684   1.456       .  S
C1615      C1631   1.980   1_556  S
C1615      C1697   1.632       .  S
C1616      C1632   1.976   1_554  S
C1616      C1687   1.701   1_554  S
O1617      C1627   1.284       .  A
O1617     Ni1625   1.939       .  S
O1618      C1628   1.282       .  A
O1619      C1629   1.284       .  A
O1620      C1630   1.285       .  A
O1620     Ni1625   1.930       .  S
O1621      C1630   1.268       .  A
O1621     Ni1626   1.915       .  S
O1622      C1629   1.272       .  A
O1623      C1628   1.269       .  A
O1624      C1627   1.267       .  A
O1624     Ni1626   1.889       .  S
Ni1625    Ni1626   2.370       .  S
C1627      C1654   1.463       .  S
C1628      C1644   1.454       .  S
C1629      C1634   1.458       .  S
C1630      C1667   1.471       .  S
C1631      C1657   1.630   1_554  S
C1632      C1637   1.615       .  S
C1633      C1634   1.406       .  A
C1633      C1638   1.425       .  A
C1633      H1640   1.082       .  S
C1634      C1635   1.372       .  A
C1635      C1636   1.367       .  A
C1635      F1642   1.349       .  S
C1636      C1637   1.405       .  A
C1636      H1641   1.057       .  S
C1637      C1638   1.438       .  A
C1638      F1639   1.350       .  S
C1643      C1644   1.368       .  A
C1643      C1648   1.389       .  A
C1643      H1650   1.086       .  S
C1644      C1645   1.392       .  A
C1645      C1646   1.408       .  A
C1645      F1652   1.358       .  S
C1646      C1647   1.414       .  A
C1646      H1651   1.044       .  S
C1647      C1648   1.481       .  A
C1648      F1649   1.352       .  S
C1653      C1654   1.382       .  A
C1653      C1658   1.390       .  A
C1653      H1660   1.073       .  S
C1654      C1655   1.386       .  A
C1655      C1656   1.403       .  A
C1655      F1662   1.358       .  S
C1656      C1657   1.411       .  A
C1656      H1661   1.032       .  S
C1657      C1658   1.451       .  A
C1658      F1659   1.348   1_556  S
C1663      C1664   1.421       .  A
C1663      C1668   1.422       .  A
C1663      H1670   1.074       .  S
C1664      C1665   1.461       .  A
C1665      C1666   1.378       .  A
C1665      F1672   1.337       .  S
C1666      C1667   1.365       .  A
C1666      H1671   1.086       .  S
C1667      C1668   1.401       .  A
C1668      F1669   1.356       .  S
C1673      C1674   1.438       .  A
C1673      C1678   1.441       .  A
C1673      H1680   1.072       .  S
C1674      C1675   1.448       .  A
C1675      C1676   1.388       .  A
C1675      F1682   1.346       .  S
C1676      C1677   1.379       .  A
C1676      H1681   1.083       .  S
C1677      C1678   1.414       .  A
C1678      F1679   1.356       .  S
C1683      C1684   1.399       .  A
C1683      C1688   1.429       .  A
C1683      H1690   1.083       .  S
C1684      C1685   1.356       .  A
C1685      C1686   1.360       .  A
C1685      F1692   1.364       .  S
C1686      C1687   1.415       .  A
C1686      H1691   1.009       .  S
C1687      C1688   1.470       .  A
C1688      F1689   1.352   1_556  S
C1693      C1694   1.403       .  A
C1693      C1698   1.420       .  A
C1693      H1700   1.083       .  S
C1694      C1695   1.378       .  A
C1695      C1696   1.386       .  A
C1695      F1702   1.359       .  S
C1696      C1697   1.439       .  A
C1696      H1701   1.044       .  S
C1697      C1698   1.403       .  A
C1698      F1699   1.353       .  S
C1703      C1704   1.421       .  A
C1703      C1708   1.398       .  A
C1703      H1710   1.053       .  S
C1704      C1705   1.474       .  A
C1705      C1706   1.397       .  A
C1705      F1712   1.356       .  S
C1706      C1707   1.374       .  A
C1706      H1711   1.083       .  S
C1707      C1708   1.382       .  A
C1708      F1709   1.358       .  S
C1713      C1714   1.453       .  A
C1713      C1718   1.402       .  A
C1713      H1720   1.049       .  S
C1714      C1715   1.476       .  A
C1715      C1716   1.418       .  A
C1715      F1722   1.349       .  S
C1716      C1717   1.379       .  A
C1716      H1721   1.083       .  S
C1717      C1718   1.391       .  A
C1718      F1719   1.359       .  S
C1723      C1724   1.391       .  A
C1723      C1728   1.410       .  A
C1723      H1730   1.083       .  S
C1724      C1725   1.388       .  A
C1725      C1726   1.410       .  A
C1725      F1732   1.357       .  S
C1726      C1727   1.423       .  A
C1726      H1731   1.032       .  S
C1727      C1728   1.458       .  A
C1728      F1729   1.323       .  S
C1733      C1734   1.411       .  A
C1733      C1738   1.432       .  A
C1733      H1740   1.082       .  S
C1734      C1735   1.389       .  A
C1735      C1736   1.402       .  A
C1735      F1742   1.358       .  S
C1736      C1737   1.459       .  A
C1736      H1741   1.077       .  S
C1737      C1738   1.374       .  A
C1738      F1739   1.350       .  S
C1743      C1744   1.397       .  A
C1743      C1748   1.411       .  A
C1743      H1750   1.082       .  S
C1744      C1745   1.376       .  A
C1745      C1746   1.396       .  A
C1745      F1752   1.354       .  S
C1746      C1747   1.415       .  A
C1746      H1751   1.058       .  S
C1747      C1748   1.464       .  A
C1748      F1749   1.342       .  S
C1753      C1754   1.458       .  A
C1753      C1758   1.401       .  A
C1753      H1760   1.034       .  S
C1754      C1755   1.489       .  A
C1755      C1756   1.393       .  A
C1755      F1762   1.346       .  S
C1756      C1757   1.374       .  A
C1756      H1761   1.087       .  S
C1757      C1758   1.359       .  A
C1758      F1759   1.357       .  S
C1763      C1764   1.402       .  A
C1763      C1768   1.414       .  A
C1763      H1770   1.084       .  S
C1764      C1765   1.368       .  A
C1765      C1766   1.384       .  A
C1765      F1772   1.361       .  S
C1766      C1767   1.466       .  A
C1766      H1771   1.054       .  S
C1767      C1768   1.434       .  A
C1768      F1769   1.326       .  S
C1773      C1774   1.340       .  A
C1773      C1778   1.380       .  A
C1773      H1780   1.094       .  S
C1774      C1775   1.387       .  A
C1775      C1776   1.417       .  A
C1775      F1782   1.356       .  S
C1776      C1777   1.461       .  A
C1776      H1781   1.066       .  S
C1777      C1778   1.500       .  A
C1778      F1779   1.340       .  S
C1783      C1784   1.404       .  A
C1783      C1788   1.424       .  A
C1783      H1790   1.083       .  S
C1784      C1785   1.388       .  A
C1785      C1786   1.412       .  A
C1785      F1792   1.358       .  S
C1786      C1787   1.456       .  A
C1786      H1791   1.045       .  S
C1787      C1788   1.438       .  A
C1788      F1789   1.329       .  S
