geometry optimzed in LAMMPS
_audit_creation_date              2020-11-30 
_audit_creation_method            'lammps2cif' 
_symmetry_space_group_name_H-M    'P1' 
_symmetry_Int_Tables_number       1 
_symmetry_cell_setting            triclinic 
loop_ 
_symmetry_equiv_pos_as_xyz 
  x,y,z 
_cell_length_a                    36.38421913188389 
_cell_length_b                    32.336930806817655 
_cell_length_c                    28.85013272650616 
_cell_angle_alpha                 95.52958470160864 
_cell_angle_beta                  89.09060163733278 
_cell_angle_gamma                 125.24303298273466 
loop_ 
_atom_site_label 
_atom_site_type_symbol 
_atom_site_fract_x 
_atom_site_fract_y 
_atom_site_fract_z 
_atom_site_charge 
C1          C  0.35280579  0.19877534  0.04179745    -0.02400
C2          C  0.33649474  0.18246174  0.25094209    -0.02400
C3          C  0.15239845  0.32264093  0.41692987    -0.02400
C4          C  0.16112484  0.32335085  0.20633541    -0.02400
C5          C  0.43028487  0.08722550  0.48497083     0.76540
Tb6        Tb  0.05972771  0.01804459  0.47937402     1.80740
O7          O  0.42200392  0.05846974  0.44797275    -0.51480
O8          O  0.37452619  0.45946058  0.42945418    -0.58930
C9          C  0.05109774  0.11452899  0.46789675     0.92360
O10         O  0.13496549  0.07846765  0.95827722    -0.58450
Tb11       Tb  0.44347533  0.00880839  0.47555992     1.78060
O12         O  0.08744876  0.47159996  0.50014706    -0.58950
O13         O  0.42798820  0.42887718  0.48264688    -0.77760
O14         O  0.00868743  0.08673762  0.46477707    -0.77080
O15         O  0.46568760  0.00811158  0.05394602    -0.62340
C16         C  0.45058128  0.41125701  0.48980208     0.91950
O17         O  0.03697164  0.01382515  0.40103450    -0.74290
C18         C  0.08498083  0.95113470  0.45987428     0.75390
C19         C  0.34798099  0.45056661  0.46196174     0.76370
O20         O  0.44639828  0.07800896  0.01789178    -0.59540
O21         O  0.36879860  0.46819690  0.00131724    -0.51480
O22         O  0.03113633  0.01519463  0.05440149    -0.77550
O23         O  0.46976208  0.00252025  0.39968299    -0.61550
C24         C  0.50349629  0.00732649  0.37890628     0.90170
C25         C  0.49788339  0.01060998  0.07536684     0.91390
C26         C  0.15431301  0.08938244  0.99791875     0.75740
O27         O  0.06907066  0.96281104  0.42916564    -0.50870
O28         O  0.12629178  0.56594806  0.02846539    -0.52030
O29         O  0.49351246  0.43755058  0.49090965    -0.64880
O30         O  0.07464535  0.09882134  0.47748455    -0.66010
C31         C  0.42512348  0.07734722  0.25635265     0.76540
Tb32       Tb  0.05621278  0.00845796  0.22260426     1.80740
O33         O  0.43061190  0.06460225  0.21560129    -0.51480
O34         O  0.38610067  0.46080272  0.18123461    -0.58930
C35         C  0.05470228  0.10981345  0.20221518     0.92360
O36         O  0.13353527  0.04871712  0.21647664    -0.58450
Tb37       Tb  0.45196041  0.01220984  0.23141589     1.78060
O38         O  0.05226706  0.43255275  0.22142745    -0.58950
O39         O  0.43288158  0.42985916  0.24128951    -0.77760
O40         O  0.01828201  0.09359477  0.22285289    -0.77080
O41         O  0.47301291  0.00724743  0.30632615    -0.62340
C42         C  0.45078362  0.40563368  0.24201430     0.91950
O43         O  0.02863738  0.00731472  0.14713749    -0.74290
C44         C  0.08261912  0.44219635  0.19342609     0.75390
C45         C  0.35864173  0.45398865  0.21209966     0.76370
O46         O  0.43735059  0.06141885  0.28675437    -0.59540
O47         O  0.37751601  0.47252270  0.25212196    -0.51480
O48         O  0.03651217  0.01108849  0.30327610    -0.77550
O49         O  0.46794602  0.00895378  0.15116015    -0.61550
C50         C  0.49770693  0.00832712  0.12764672     0.90170
C51         C  0.50445755  0.00808223  0.32620963     0.91390
C52         C  0.14649553  0.07071310  0.25704454     0.75740
O53         O  0.09781265  0.98368053  0.17708596    -0.50870
O54         O  0.11464065  0.56459900  0.28110903    -0.52030
O55         O  0.49233872  0.42675938  0.23475843    -0.64880
O56         O  0.07006376  0.08296722  0.19496280    -0.66010
C57         C  0.08922912  0.23929955  0.16492506    -0.05690
C58         C  0.13557486  0.26843033  0.17633344     0.00240
C59         C  0.15298690  0.23875401  0.16781479    -0.08330
C60         C  0.12740385  0.18855142  0.18066946    -0.05710
C61         C  0.08093214  0.16263566  0.18647883     0.00220
C62         C  0.06103234  0.18697466  0.17217815    -0.08240
C63         C  0.01093475  0.16059165  0.16794904     0.62130
H64         H  0.07428297  0.25821738  0.15584903     0.12830
H65         H  0.14269332  0.16804351  0.18062059     0.12840
C66         C  0.18276976  0.24634195  0.12750859     0.62370
F67         F  0.00025498  0.18694458  0.14314247    -0.22800
F68         F  0.49544978  0.15899774  0.21205872    -0.20130
F69         F  0.98991717  0.11215407  0.14496977    -0.19800
F70         F  0.21822963  0.24545916  0.14153216    -0.19860
F71         F  0.19928527  0.29090986  0.10860580    -0.20180
F72         F  0.15783303  0.20715123  0.09223968    -0.22850
C73         C  0.07674880  0.36441867  0.20538632    -0.05690
C74         C  0.10028332  0.40983322  0.18554705     0.00240
C75         C  0.14098136  0.42407076  0.16479533    -0.08330
C76         C  0.15887919  0.39541555  0.17058550    -0.05710
C77         C  0.13716803  0.35062743  0.19446069     0.00220
C78         C  0.09327971  0.33494025  0.21093785    -0.08240
C79         C  0.06050062  0.29091128  0.23856084     0.62130
H80         H  0.04462630  0.35253912  0.21947382     0.12830
H81         H  0.19195908  0.41218623  0.15919264     0.12840
C82         C  0.16596361  0.96958377  0.13686143     0.62370
F83         F  0.05852939  0.31185617  0.28135379    -0.22800
F84         F  0.06925127  0.25666790  0.24670998    -0.20130
F85         F  0.01868098  0.26335318  0.21534803    -0.19800
F86         F  0.18193480  0.01386988  0.16557075    -0.19860
F87         F  0.13720022  0.96425013  0.10224943    -0.20180
F88         F  0.20227128  0.97406361  0.11561639    -0.22850
C89         C  0.23668426  0.37939821  0.16116132    -0.05690
C90         C  0.21371187  0.35114415  0.19901055     0.00240
C91         C  0.24264404  0.35441753  0.23457018    -0.08330
C92         C  0.28517651  0.39941112  0.24279649    -0.05710
C93         C  0.30906313  0.42443998  0.20504024     0.00220
C94         C  0.28431849  0.41582960  0.16335843    -0.08240
C95         C  0.30432058  0.94860541  0.12373887     0.62130
H96         H  0.21782198  0.37378501  0.12975256     0.12830
H97         H  0.30338409  0.40603284  0.27516781     0.12840
C98         C  0.24409248  0.30989040  0.24318706     0.62370
F99         F  0.28340121  0.97269236  0.12066790    -0.22800
F100        F  0.29629271  0.91828980  0.08260588    -0.20130
F101        F  0.34990982  0.98613638  0.12977212    -0.19800
F102        F  0.26973661  0.30515982  0.21014612    -0.19860
F103        F  0.20287303  0.26463374  0.24180412    -0.20180
F104        F  0.26436596  0.31884095  0.28639338    -0.22850
C105        C  0.08527787  0.22724995  0.40493638    -0.05690
C106        C  0.11770419  0.26943290  0.43597471     0.00240
C107        C  0.11633509  0.25886366  0.98355473    -0.08330
C108        C  0.09622599  0.20779377  0.99265388    -0.05710
C109        C  0.07307754  0.16730332  0.45728658     0.00220
C110        C  0.06556653  0.17699161  0.41317955    -0.08240
C111        C  0.04152715  0.13525398  0.37275944     0.62130
H112        H  0.07858421  0.23215306  0.37114323     0.12830
H113        H  0.09784815  0.19920589  0.02764272     0.12840
C114        C  0.13474572  0.29878018  0.02540923     0.62370
F115        F  0.04197840  0.15360096  0.33117296    -0.22800
F116        F  0.99700132  0.10030337  0.38191537    -0.20130
F117        F  0.06340671  0.11185432  0.36634402    -0.19800
F118        F  0.12925234  0.33652610  0.01848414    -0.19860
F119        F  0.17960828  0.31942174  0.03455285    -0.20180
F120        F  0.11174387  0.27730473  0.06468534    -0.22850
C121        C  0.07276240  0.36689203  0.44971171    -0.05690
C122        C  0.10183081  0.41940903  0.44936296     0.00240
C123        C  0.14555668  0.44056601  0.43454898    -0.08330
C124        C  0.16067363  0.40942414  0.42643724    -0.05710
C125        C  0.13205859  0.35559303  0.42542428     0.00220
C126        C  0.08483818  0.33518004  0.42900268    -0.08240
C127        C  0.04861945  0.29295831  0.39448426     0.62130
H128        H  0.03785407  0.35059069  0.45717899     0.12830
H129        H  0.19592449  0.42887457  0.42201761     0.12840
C130        C  0.17668688  0.99633020  0.42840711     0.62370
F131        F  0.01916334  0.30388580  0.38030494    -0.22800
F132        F  0.02339846  0.24779319  0.41397321    -0.20130
F133        F  0.06768802  0.28829704  0.35480121    -0.19800
F134        F  0.18403807  0.02396717  0.97070203    -0.19860
F135        F  0.15754915  0.00885490  0.39654156    -0.20180
F136        F  0.21753339  0.00888613  0.41247458    -0.22850
C137        C  0.22151661  0.39350734  0.47333071    -0.05690
C138        C  0.20121981  0.34882570  0.44199836     0.00240
C139        C  0.23139616  0.33548216  0.42857683    -0.08330
C140        C  0.27711797  0.37482265  0.42417460    -0.05710
C141        C  0.29765808  0.41972331  0.45457753     0.00220
C142        C  0.26885318  0.42889290  0.48044402    -0.08240
C143        C  0.28440045  0.47951752  0.00655250     0.62130
H144        H  0.20045329  0.40263154  0.49124168     0.12830
H145        H  0.29866048  0.36496401  0.40812327     0.12840
C146        C  0.22804967  0.29129372  0.44735868     0.62370
F147        F  0.25724669  0.97174705  0.04334889    -0.22800
F148        F  0.27935448  0.00679381  0.47660394    -0.20130
F149        F  0.32835949  0.50776069  0.02396660    -0.19800
F150        F  0.23841924  0.26788717  0.41270700    -0.19860
F151        F  0.18668021  0.25629010  0.46342384    -0.20180
F152        F  0.25895474  0.30885132  0.48459646    -0.22850
C153        C  0.14241963  0.27817903  0.28193186    -0.05690
C154        C  0.15859717  0.32320275  0.26153448     0.00240
C155        C  0.18041977  0.36900435  0.29365781    -0.08330
C156        C  0.18418722  0.36567287  0.34158102    -0.05710
C157        C  0.16015773  0.31998742  0.36219997     0.00220
C158        C  0.14614524  0.27637740  0.33031064    -0.08240
C159        C  0.15625550  0.23898813  0.33998790     0.62130
H160        H  0.12939906  0.24372925  0.25924814     0.12830
H161        H  0.20731256  0.39958843  0.36336435     0.12840
C162        C  0.19875671  0.42224669  0.28065510     0.62370
F163        F  0.12865543  0.19332454  0.31232772    -0.22800
F164        F  0.15379246  0.22808690  0.38471342    -0.20130
F165        F  0.19994319  0.26178847  0.32943969    -0.19800
F166        F  0.16346697  0.42524827  0.27064553    -0.19860
F167        F  0.22640069  0.43543970  0.24374037    -0.20180
F168        F  0.22415339  0.45908873  0.31720873    -0.22850
C169        C  0.26888558  0.17189923  0.29945377    -0.05690
C170        C  0.28777463  0.15111744  0.27226167     0.00240
C171        C  0.26027908  0.09693962  0.27276170    -0.08330
C172        C  0.21417692  0.07155990  0.26211623    -0.05710
C173        C  0.19404915  0.09692532  0.27321945     0.00220
C174        C  0.22148996  0.14662598  0.29654816    -0.08240
C175        C  0.20244277  0.17510471  0.31241652     0.62130
H176        H  0.29000408  0.20620916  0.32259212     0.12830
H177        H  0.19313007  0.53058727  0.25350680     0.12840
C178        C  0.26946286  0.07533624  0.31160881     0.62370
F179        F  0.23617006  0.22195263  0.33445599    -0.22800
F180        F  0.16878069  0.14880496  0.34299590    -0.20130
F181        F  0.18525406  0.18149665  0.27356787    -0.19800
F182        F  0.23049174  0.04206618  0.33355013    -0.19860
F183        F  0.29824944  0.11439415  0.34476298    -0.20180
F184        F  0.28799513  0.55002356  0.29525964    -0.22850
C185        C  0.43924304  0.32078282  0.24466706    -0.05690
C186        C  0.42242614  0.35027993  0.25234916     0.00240
C187        C  0.38080893  0.32670286  0.27393493    -0.08330
C188        C  0.35352790  0.27316157  0.27408210    -0.05710
C189        C  0.37022196  0.24246121  0.26956845     0.00220
C190        C  0.41804832  0.27272916  0.26243101    -0.08240
C191        C  0.45018856  0.26642371  0.28801316     0.62130
H192        H  0.47262398  0.33859381  0.23157668     0.12830
H193        H  0.31872368  0.25744777  0.27520877     0.12840
C194        C  0.36467174  0.35683224  0.29738410     0.62370
F195        F  0.49283490  0.31131580  0.29235257    -0.22800
F196        F  0.45269629  0.22893576  0.26492863    -0.20130
F197        F  0.43770889  0.25634751  0.33302352    -0.19800
F198        F  0.34960669  0.37194728  0.26387239    -0.19860
F199        F  0.39930967  0.39906206  0.32472215    -0.20180
F200        F  0.33019102  0.32804143  0.32651262    -0.22850
C201        C  0.36838376  0.08571799  0.22740454    -0.05690
C202        C  0.39961180  0.10040122  0.26350751     0.00240
C203        C  0.40115623  0.13131041  0.30282452    -0.08330
C204        C  0.37732241  0.15390689  0.29964654    -0.05710
C205        C  0.35391908  0.14808532  0.25804931     0.00220
C206        C  0.34311065  0.10520526  0.22540350    -0.08240
C207        C  0.30410312  0.07386259  0.18936471     0.62130
H208        H  0.36192969  0.05618551  0.20035359     0.12830
H209        H  0.37672142  0.17616830  0.32947606     0.12840
C210        C  0.42807480  0.14104533  0.34683012     0.62370
F211        F  0.32045875  0.07463270  0.14579963    -0.22800
F212        F  0.27671037  0.08950087  0.18777038    -0.20130
F213        F  0.27754079  0.02388163  0.19960533    -0.19800
F214        F  0.47281340  0.16455266  0.33698423    -0.19860
F215        F  0.41189894  0.09530362  0.36408193    -0.20180
F216        F  0.42518229  0.17204661  0.38100438    -0.22850
C217        C  0.28395200  0.18662705  0.49468390    -0.05690
C218        C  0.30022810  0.16809229  0.02552718     0.00240
C219        C  0.26463827  0.12263499  0.04518283    -0.08330
C220        C  0.21982720  0.10730867  0.04244974    -0.05710
C221        C  0.20456078  0.12135898  0.00766265     0.00220
C222        C  0.23751888  0.15895259  0.48041974    -0.08240
C223        C  0.22438490  0.16674795  0.43457608     0.62130
H224        H  0.30689919  0.22002666  0.47799593     0.12830
H225        H  0.19491289  0.07637933  0.06183734     0.12840
C226        C  0.26839368  0.08382661  0.06482577     0.62370
F227        F  0.26129329  0.20593644  0.41412083    -0.22800
F228        F  0.19286067  0.17738008  0.44113919    -0.20130
F229        F  0.20616747  0.12271610  0.40446706    -0.19800
F230        F  0.25534528  0.08040535  0.10967231    -0.19860
F231        F  0.31029116  0.09399242  0.06306890    -0.20180
F232        F  0.23878964  0.03682609  0.04005870    -0.22850
C233        C  0.42184289  0.35107138  0.04863673    -0.05690
C234        C  0.42570387  0.35812944  0.50170310     0.00240
C235        C  0.40916699  0.31584929  0.46850970    -0.08330
C236        C  0.38799090  0.26713514  0.48392639    -0.05710
C237        C  0.38141114  0.25763026  0.53164471     0.00220
C238        C  0.40516294  0.30358787  0.06477663    -0.08240
C239        C  0.42257347  0.30887045  0.11449793     0.62130
H240        H  0.43556636  0.38488324  0.07310288     0.12830
H241        H  0.37642220  0.23563605  0.45791261     0.12840
C242        C  0.41372683  0.32245634  0.41696644     0.62370
F243        F  0.45753373  0.35867882  0.12985831    -0.22800
F244        F  0.44071773  0.28181074  0.11618076    -0.20130
F245        F  0.38949542  0.29481387  0.14593763    -0.19800
F246        F  0.45883575  0.35112837  0.40707515    -0.19860
F247        F  0.39497005  0.34718835  0.40516342    -0.20180
F248        F  0.39185169  0.27615089  0.38971699    -0.22850
C249        C  0.42288489  0.20024304  0.01856483    -0.05690
C250        C  0.37549030  0.17473865  0.51349744     0.00240
C251        C  0.35353121  0.12978861  0.48025684    -0.08330
C252        C  0.37327757  0.10309630  0.47272308    -0.05710
C253        C  0.41635526  0.12263936  0.48972802     0.00220
C254        C  0.44353420  0.17425829  0.00834537    -0.08240
C255        C  0.49327154  0.20067933  0.01801972     0.62130
H256        H  0.44315865  0.23898148  0.03495465     0.12830
H257        H  0.35524279  0.06633306  0.45222417     0.12840
C258        C  0.31547548  0.11336516  0.44539799     0.62370
F259        F  0.51526924  0.25219725  0.03170237    -0.22800
F260        F  0.51136964  0.19486667  0.97794504    -0.20130
F261        F  0.50039239  0.17888226  0.05241395    -0.19800
F262        F  0.32173317  0.15485651  0.42764835    -0.19860
F263        F  0.27452361  0.08619164  0.46467331    -0.20180
F264        F  0.31374815  0.08174982  0.40819049    -0.22850
C265        C  0.32080293  0.20241142  0.12046245    -0.05690
C266        C  0.35204251  0.19556518  0.09686426     0.00240
C267        C  0.37648098  0.18479119  0.12684291    -0.08330
C268        C  0.37489910  0.19383169  0.17496851    -0.05710
C269        C  0.33714670  0.18723754  0.19657934     0.00220
C270        C  0.30796411  0.19065669  0.16671953    -0.08240
C271        C  0.26257142  0.17971759  0.17917576     0.62130
H272        H  0.30427069  0.21482664  0.10106853     0.12830
H273        H  0.40189074  0.20021077  0.19665424     0.12840
C274        C  0.40732027  0.16787597  0.11479485     0.62370
F275        F  0.24130972  0.18341110  0.14213521    -0.22800
F276        F  0.26675926  0.21299518  0.21554259    -0.20130
F277        F  0.23416504  0.13055377  0.18970044    -0.19800
F278        F  0.44939212  0.20885172  0.10515235    -0.19860
F279        F  0.38873041  0.12847660  0.07985002    -0.20180
F280        F  0.41407452  0.14841759  0.15186734    -0.22850
C281        C  0.35280592  0.19877525  0.54179737    -0.02400
C282        C  0.33649482  0.18246180  0.75094202    -0.02400
C283        C  0.15239819  0.32264091  0.91692990    -0.02400
C284        C  0.16112490  0.32335081  0.70633542    -0.02400
C285        C  0.43028485  0.08722570  0.98497083     0.76540
Tb286      Tb  0.05972750  0.01804472  0.97937416     1.80740
O287        O  0.42200386  0.05846990  0.94797276    -0.51480
O288        O  0.37452589  0.45946041  0.92945412    -0.58930
C289        C  0.05109721  0.11452871  0.96789638     0.92360
O290        O  0.13496573  0.07846725  0.45827708    -0.58450
Tb291      Tb  0.44347528  0.00880855  0.97555988     1.78060
O292        O  0.08744890  0.47160034  0.00014713    -0.58950
O293        O  0.42798810  0.42887709  0.98264670    -0.77760
O294        O  0.00868691  0.08673706  0.96477551    -0.77080
O295        O  0.46568762  0.00811138  0.55394602    -0.62340
C296        C  0.45058124  0.41125705  0.98980202     0.91950
O297        O  0.03697155  0.01382537  0.90103458    -0.74290
C298        C  0.08498061  0.95113483  0.95987434     0.75390
C299        C  0.34798070  0.45056641  0.96196168     0.76370
O300        O  0.44639824  0.07800874  0.51789181    -0.59540
O301        O  0.36879888  0.46819711  0.50131731    -0.51480
O302        O  0.03113662  0.01519473  0.55440140    -0.77550
O303        O  0.46976204  0.00252031  0.89968297    -0.61550
C304        C  0.50349628  0.00732659  0.87890628     0.90170
C305        C  0.49788343  0.01060980  0.57536682     0.91390
C306        C  0.15431318  0.08938234  0.49791869     0.75740
O307        O  0.06907034  0.96281110  0.92916574    -0.50870
O308        O  0.12629169  0.56594791  0.52846543    -0.52030
O309        O  0.49351244  0.43755071  0.99090972    -0.64880
O310        O  0.07464475  0.09882145  0.97748584    -0.66010
C311        C  0.42512346  0.07734712  0.75635252     0.76540
Tb312      Tb  0.05621282  0.00845787  0.72260432     1.80740
O313        O  0.43061175  0.06460202  0.71560116    -0.51480
O314        O  0.38610073  0.46080292  0.68123452    -0.58930
C315        C  0.05470242  0.10981341  0.70221526     0.92360
O316        O  0.13353530  0.04871689  0.71647676    -0.58450
Tb317      Tb  0.45196035  0.01220970  0.73141582     1.78060
O318        O  0.05226691  0.43255245  0.72142730    -0.58950
O319        O  0.43288156  0.42985919  0.74128942    -0.77760
O320        O  0.01828216  0.09359476  0.72285296    -0.77080
O321        O  0.47301288  0.00724741  0.80632611    -0.62340
C322        C  0.45078357  0.40563367  0.74201417     0.91950
O323        O  0.02863760  0.00731472  0.64713748    -0.74290
C324        C  0.08261900  0.44219608  0.69342597     0.75390
C325        C  0.35864181  0.45398884  0.71209960     0.76370
O326        O  0.43735066  0.06141886  0.78675425    -0.59540
O327        O  0.37751610  0.47252281  0.75212189    -0.51480
O328        O  0.03651215  0.01108848  0.80327615    -0.77550
O329        O  0.46794603  0.00895362  0.65116011    -0.61550
C330        C  0.49770696  0.00832696  0.62764670     0.90170
C331        C  0.50445752  0.00808223  0.82620962     0.91390
C332        C  0.14649558  0.07071299  0.75704461     0.75740
O333        O  0.09781259  0.98368036  0.67708596    -0.50870
O334        O  0.11464055  0.56459869  0.78110901    -0.52030
O335        O  0.49233865  0.42675933  0.73475830    -0.64880
O336        O  0.07006386  0.08296714  0.69496284    -0.66010
C337        C  0.08922933  0.23929946  0.66492497    -0.05690
C338        C  0.13557504  0.26843027  0.67633351     0.00240
C339        C  0.15298715  0.23875400  0.66781510    -0.08330
C340        C  0.12740407  0.18855142  0.68066977    -0.05710
C341        C  0.08093232  0.16263563  0.68647894     0.00220
C342        C  0.06103254  0.18697459  0.67217811    -0.08240
C343        C  0.01093495  0.16059157  0.66794898     0.62130
H344        H  0.07428318  0.25821725  0.65584883     0.12830
H345        H  0.14269356  0.16804355  0.68062107     0.12840
C346        C  0.18277034  0.24634209  0.62750919     0.62370
F347        F  0.00025515  0.18694450  0.64314244    -0.22800
F348        F  0.49544975  0.15899750  0.71205858    -0.20130
F349        F  0.98991738  0.11215400  0.64496969    -0.19800
F350        F  0.21823064  0.24546035  0.64153336    -0.19860
F351        F  0.19928523  0.29090957  0.60860585    -0.20180
F352        F  0.15783416  0.20715090  0.59224051    -0.22850
C353        C  0.07674868  0.36441836  0.70538612    -0.05690
C354        C  0.10028320  0.40983294  0.68554689     0.00240
C355        C  0.14098124  0.42407050  0.66479515    -0.08330
C356        C  0.15887909  0.39541531  0.67058530    -0.05710
C357        C  0.13716799  0.35062724  0.69446057     0.00220
C358        C  0.09327964  0.33493999  0.71093769    -0.08240
C359        C  0.06050060  0.29091101  0.73856067     0.62130
H360        H  0.04462616  0.35253877  0.71947360     0.12830
H361        H  0.19195896  0.41218596  0.65919238     0.12840
C362        C  0.16596348  0.96958359  0.63686132     0.62370
F363        F  0.05852931  0.31185587  0.78135362    -0.22800
F364        F  0.06925135  0.25666772  0.74670986    -0.20130
F365        F  0.01868097  0.26335283  0.71534785    -0.19800
F366        F  0.18193476  0.01386965  0.66557075    -0.19860
F367        F  0.13720010  0.96425011  0.60224939    -0.20180
F368        F  0.20227110  0.97406340  0.61561619    -0.22850
C369        C  0.23668429  0.37939813  0.66116129    -0.05690
C370        C  0.21371196  0.35114426  0.69901063     0.00240
C371        C  0.24264420  0.35441799  0.73457041    -0.08330
C372        C  0.28517661  0.39941168  0.74279659    -0.05710
C373        C  0.30906321  0.42444024  0.70504021     0.00220
C374        C  0.28431851  0.41582962  0.66335836    -0.08240
C375        C  0.30432053  0.94860534  0.62373889     0.62130
H376        H  0.21782198  0.37378476  0.62975250     0.12830
H377        H  0.30338423  0.40603361  0.77516795     0.12840
C378        C  0.24409282  0.30989109  0.74318776     0.62370
F379        F  0.28340115  0.97269228  0.62066795    -0.22800
F380        F  0.29629269  0.91828977  0.58260588    -0.20130
F381        F  0.34990978  0.98613633  0.62977217    -0.19800
F382        F  0.26973740  0.30516070  0.71014731    -0.19860
F383        F  0.20287348  0.26463425  0.74180452    -0.20180
F384        F  0.26436597  0.31884195  0.78639435    -0.22850
C385        C  0.08527764  0.22724988  0.90493608    -0.05690
C386        C  0.11770385  0.26943278  0.93597456     0.00240
C387        C  0.11633553  0.25886394  0.48355493    -0.08330
C388        C  0.09622642  0.20779408  0.49265422    -0.05710
C389        C  0.07307713  0.16730307  0.95728617     0.00220
C390        C  0.06556627  0.17699150  0.91317913    -0.08240
C391        C  0.04152711  0.13525401  0.87275887     0.62130
H392        H  0.07858408  0.23215310  0.87114293     0.12830
H393        H  0.09784870  0.19920630  0.52764307     0.12840
C394        C  0.13474637  0.29878060  0.52540933     0.62370
F395        F  0.04197873  0.15360119  0.83117238    -0.22800
F396        F  0.99700117  0.10030340  0.88191440    -0.20130
F397        F  0.06340663  0.11185429  0.86634365    -0.19800
F398        F  0.12925295  0.33652649  0.51848422    -0.19860
F399        F  0.17960896  0.31942216  0.53455272    -0.20180
F400        F  0.11174472  0.27730532  0.56468558    -0.22850
C401        C  0.07276220  0.36689217  0.94971166    -0.05690
C402        C  0.10183071  0.41940918  0.94936309     0.00240
C403        C  0.14555663  0.44056611  0.93454930    -0.08330
C404        C  0.16067353  0.40942420  0.92643764    -0.05710
C405        C  0.13205839  0.35559306  0.92542443     0.00220
C406        C  0.08483798  0.33518015  0.92900269    -0.08240
C407        C  0.04861923  0.29295833  0.89448435     0.62130
H408        H  0.03785386  0.35059088  0.95717884     0.12830
H409        H  0.19592438  0.42887459  0.92201821     0.12840
C410        C  0.17668673  0.99633036  0.92840736     0.62370
F411        F  0.01916302  0.30388567  0.88030506    -0.22800
F412        F  0.02339837  0.24779325  0.91397337    -0.20130
F413        F  0.06768779  0.28829709  0.85480129    -0.19800
F414        F  0.18403824  0.02396704  0.47070176    -0.19860
F415        F  0.15754902  0.00885509  0.89654183    -0.20180
F416        F  0.21753324  0.00888629  0.91247483    -0.22850
C417        C  0.22151631  0.39350703  0.97333100    -0.05690
C418        C  0.20121951  0.34882554  0.94199845     0.00240
C419        C  0.23139583  0.33548202  0.92857677    -0.08330
C420        C  0.27711760  0.37482258  0.92417439    -0.05710
C421        C  0.29765777  0.41972315  0.95457750     0.00220
C422        C  0.26885289  0.42889262  0.98044422    -0.08240
C423        C  0.28440071  0.47951778  0.50655231     0.62130
H424        H  0.20045298  0.40263115  0.99124207     0.12830
H425        H  0.29866008  0.36496401  0.90812288     0.12840
C426        C  0.22804962  0.29129393  0.94735907     0.62370
F427        F  0.25724685  0.97174698  0.54334884    -0.22800
F428        F  0.27935453  0.00679398  0.97660407    -0.20130
F429        F  0.32835980  0.50776103  0.52396629    -0.19800
F430        F  0.23841956  0.26788742  0.91270772    -0.19860
F431        F  0.18668013  0.25629015  0.96342411    -0.20180
F432        F  0.25895456  0.30885198  0.98459706    -0.22850
C433        C  0.14241978  0.27817910  0.78193193    -0.05690
C434        C  0.15859715  0.32320275  0.76153449     0.00240
C435        C  0.18041950  0.36900436  0.79365778    -0.08330
C436        C  0.18418680  0.36567295  0.84158105    -0.05710
C437        C  0.16015753  0.31998750  0.86220001     0.00220
C438        C  0.14614536  0.27637755  0.83031073    -0.08240
C439        C  0.15625566  0.23898834  0.83998818     0.62130
H440        H  0.12939936  0.24372934  0.75924825     0.12830
H441        H  0.20731183  0.39958853  0.86336434     0.12840
C442        C  0.19875633  0.42224663  0.78065498     0.62370
F443        F  0.12865571  0.19332474  0.81232798    -0.22800
F444        F  0.15379247  0.22808710  0.88471371    -0.20130
F445        F  0.19994339  0.26178869  0.82944017    -0.19800
F446        F  0.16346651  0.42524806  0.77064531    -0.19860
F447        F  0.22640034  0.43543966  0.74374028    -0.20180
F448        F  0.22415293  0.45908877  0.81720856    -0.22850
C449        C  0.26888564  0.17189931  0.79945368    -0.05690
C450        C  0.28777470  0.15111751  0.77226160     0.00240
C451        C  0.26027922  0.09693972  0.77276178    -0.08330
C452        C  0.21417704  0.07155992  0.76211634    -0.05710
C453        C  0.19404923  0.09692529  0.77321949     0.00220
C454        C  0.22149001  0.14662600  0.79654813    -0.08240
C455        C  0.20244278  0.17510468  0.81241653     0.62130
H456        H  0.29000412  0.20620924  0.82259204     0.12830
H457        H  0.19313012  0.53058714  0.75350692     0.12840
C458        C  0.26946313  0.07533654  0.81160898     0.62370
F459        F  0.23617001  0.22195255  0.83445615    -0.22800
F460        F  0.16878063  0.14880483  0.84299581    -0.20130
F461        F  0.18525415  0.18149675  0.77356789    -0.19800
F462        F  0.23049209  0.04206664  0.83355050    -0.19860
F463        F  0.29824983  0.11439460  0.84476298    -0.20180
F464        F  0.28799517  0.55002370  0.79526008    -0.22850
C465        C  0.43924299  0.32078282  0.74466682    -0.05690
C466        C  0.42242608  0.35027993  0.75234898     0.00240
C467        C  0.38080890  0.32670287  0.77393480    -0.08330
C468        C  0.35352791  0.27316160  0.77408199    -0.05710
C469        C  0.37022200  0.24246127  0.76956837     0.00220
C470        C  0.41804834  0.27272924  0.76243088    -0.08240
C471        C  0.45018866  0.26642404  0.78801320     0.62130
H472        H  0.47262391  0.33859380  0.73157639     0.12830
H473        H  0.31872369  0.25744778  0.77520865     0.12840
C474        C  0.36467175  0.35683225  0.79738408     0.62370
F475        F  0.49283494  0.31131625  0.79235265    -0.22800
F476        F  0.45269659  0.22893618  0.76492879    -0.20130
F477        F  0.43770893  0.25634785  0.83302355    -0.19800
F478        F  0.34960673  0.37194745  0.76387248    -0.19860
F479        F  0.39930970  0.39906199  0.82472218    -0.20180
F480        F  0.33019101  0.32804138  0.82651256    -0.22850
C481        C  0.36838369  0.08571789  0.72740453    -0.05690
C482        C  0.39961183  0.10040120  0.76350741     0.00240
C483        C  0.40115642  0.13131055  0.80282437    -0.08330
C484        C  0.37732264  0.15390707  0.79964640    -0.05710
C485        C  0.35391917  0.14808538  0.75804924     0.00220
C486        C  0.34311063  0.10520523  0.72540350    -0.08240
C487        C  0.30410307  0.07386257  0.68936474     0.62130
H488        H  0.36192952  0.05618532  0.70035363     0.12830
H489        H  0.37672174  0.17616854  0.82947591     0.12840
C490        C  0.42807512  0.14104558  0.84682990     0.62370
F491        F  0.32045867  0.07463259  0.64579966    -0.22800
F492        F  0.27671037  0.08950092  0.68777038    -0.20130
F493        F  0.27754069  0.02388163  0.69960542    -0.19800
F494        F  0.47281369  0.16455286  0.83698387    -0.19860
F495        F  0.41189931  0.09530394  0.86408182    -0.20180
F496        F  0.42518272  0.17204697  0.88100414    -0.22850
C497        C  0.28395186  0.18662712  0.99468394    -0.05690
C498        C  0.30022823  0.16809218  0.52552710     0.00240
C499        C  0.26463841  0.12263486  0.54518274    -0.08330
C500        C  0.21982734  0.10730852  0.54244965    -0.05710
C501        C  0.20456093  0.12135888  0.50766261     0.00220
C502        C  0.23751874  0.15895263  0.98041975    -0.08240
C503        C  0.22438478  0.16674787  0.93457601     0.62130
H504        H  0.30689905  0.22002672  0.97799595     0.12830
H505        H  0.19491302  0.07637914  0.56183722     0.12840
C506        C  0.26839381  0.08382647  0.56482564     0.62370
F507        F  0.26129320  0.20593623  0.91412067    -0.22800
F508        F  0.19286062  0.17738012  0.94113900    -0.20130
F509        F  0.20616728  0.12271592  0.90446712    -0.19800
F510        F  0.25534540  0.08040515  0.60967218    -0.19860
F511        F  0.31029130  0.09399228  0.56306879    -0.20180
F512        F  0.23878980  0.03682597  0.54005853    -0.22850
C513        C  0.42184285  0.35107126  0.54863673    -0.05690
C514        C  0.42570388  0.35812950  0.00170309     0.00240
C515        C  0.40916689  0.31584931  0.96850971    -0.08330
C516        C  0.38799075  0.26713518  0.98392645    -0.05710
C517        C  0.38141102  0.25763035  0.03164479     0.00220
C518        C  0.40516300  0.30358775  0.56477658    -0.08240
C519        C  0.42257370  0.30887034  0.61449779     0.62130
H520        H  0.43556627  0.38488308  0.57310292     0.12830
H521        H  0.37642199  0.23563606  0.95791269     0.12840
C522        C  0.41372667  0.32245630  0.91696645     0.62370
F523        F  0.45753401  0.35867870  0.62985810    -0.22800
F524        F  0.44071795  0.28181060  0.61618046    -0.20130
F525        F  0.38949575  0.29481376  0.64593762    -0.19800
F526        F  0.45883557  0.35112828  0.90707509    -0.19860
F527        F  0.39496990  0.34718833  0.90516343    -0.20180
F528        F  0.39185146  0.27615082  0.88971703    -0.22850
C529        C  0.42288500  0.20024290  0.51856480    -0.05690
C530        C  0.37549018  0.17473875  0.01349751     0.00240
C531        C  0.35353111  0.12978870  0.98025691    -0.08330
C532        C  0.37327751  0.10309644  0.97272311    -0.05710
C533        C  0.41635522  0.12263953  0.98972804     0.00220
C534        C  0.44353426  0.17425811  0.50834536    -0.08240
C535        C  0.49327159  0.20067911  0.51801973     0.62130
H536        H  0.44315877  0.23898134  0.53495462     0.12830
H537        H  0.35524275  0.06633320  0.95222421     0.12840
C538        C  0.31547532  0.11336519  0.94539812     0.62370
F539        F  0.51526933  0.25219702  0.53170240    -0.22800
F540        F  0.51136969  0.19486643  0.47794505    -0.20130
F541        F  0.50039241  0.17888198  0.55241394    -0.19800
F542        F  0.32173295  0.15485650  0.92764846    -0.19860
F543        F  0.27452349  0.08619168  0.96467352    -0.20180
F544        F  0.31374794  0.08174981  0.90819062    -0.22850
C545        C  0.32080303  0.20241139  0.62046234    -0.05690
C546        C  0.35204261  0.19556510  0.59686419     0.00240
C547        C  0.37648106  0.18479112  0.62684286    -0.08330
C548        C  0.37489919  0.19383168  0.67496846    -0.05710
C549        C  0.33714679  0.18723757  0.69657926     0.00220
C550        C  0.30796420  0.19065669  0.66671943    -0.08240
C551        C  0.26257151  0.17971762  0.67917564     0.62130
H552        H  0.30427080  0.21482660  0.60106840     0.12830
H553        H  0.40189084  0.20021078  0.69665421     0.12840
C554        C  0.40732032  0.16787584  0.61479484     0.62370
F555        F  0.24130979  0.18341106  0.64213504    -0.22800
F556        F  0.26675938  0.21299531  0.71554239    -0.20130
F557        F  0.23416512  0.13055385  0.68970044    -0.19800
F558        F  0.44939219  0.20885155  0.60515235    -0.19860
F559        F  0.38873047  0.12847647  0.57985002    -0.20180
F560        F  0.41407452  0.14841745  0.65186736    -0.22850
C561        C  0.35281417  0.69877998  0.04179393    -0.02400
C562        C  0.33649715  0.68246635  0.25093875    -0.02400
C563        C  0.15239424  0.82264045  0.41693432    -0.02400
C564        C  0.16112224  0.82335327  0.20633950    -0.02400
C565        C  0.43028759  0.58722253  0.48497467     0.76540
Tb566      Tb  0.05973543  0.51804920  0.47936895     1.80740
O567        O  0.42200378  0.55846478  0.44797727    -0.51480
O568        O  0.37452315  0.95946206  0.42945190    -0.58930
C569        C  0.05110133  0.61452847  0.46789438     0.92360
O570        O  0.13497306  0.57847803  0.95827304    -0.58450
Tb571      Tb  0.44347767  0.50880494  0.47556250     1.78060
O572        O  0.08744779  0.97160241  0.50015338    -0.58950
O573        O  0.42798483  0.92888177  0.48265250    -0.77760
O574        O  0.00869144  0.58673220  0.46476144    -0.77080
O575        O  0.46568795  0.50810820  0.05394914    -0.62340
C576        C  0.45057781  0.91126003  0.48980126     0.91950
O577        O  0.03697851  0.51383088  0.40102962    -0.74290
C578        C  0.08499313  0.45114419  0.45986537     0.75390
C579        C  0.34797810  0.95057077  0.46195915     0.76370
O580        O  0.44640356  0.57800744  0.01789449    -0.59540
O581        O  0.36879643  0.96820392  0.00131427    -0.51480
O582        O  0.03114204  0.51519508  0.05439595    -0.77550
O583        O  0.46976408  0.50251751  0.39968590    -0.61550
C584        C  0.50349861  0.50732463  0.37890946     0.90170
C585        C  0.49788390  0.51060759  0.07537047     0.91390
C586        C  0.15432158  0.58938581  0.99791286     0.75740
O587        O  0.06909175  0.46282979  0.42915592    -0.50870
O588        O  0.12628257  0.06595023  0.02847252    -0.52030
O589        O  0.49350865  0.93755160  0.49090209    -0.64880
O590        O  0.07464986  0.59882681  0.47749870    -0.66010
C591        C  0.42511986  0.57734340  0.25635442     0.76540
Tb592      Tb  0.05621703  0.50846072  0.22259883     1.80740
O593        O  0.43060923  0.56459754  0.21560386    -0.51480
O594        O  0.38609934  0.96081306  0.18123021    -0.58930
C595        C  0.05470814  0.60981579  0.20221137     0.92360
O596        O  0.13353911  0.54872524  0.21646885    -0.58450
Tb597      Tb  0.45195975  0.51220746  0.23142061     1.78060
O598        O  0.05225563  0.93254414  0.22142537    -0.58950
O599        O  0.43287982  0.92986019  0.24128341    -0.77760
O600        O  0.01828841  0.59359759  0.22285009    -0.77080
O601        O  0.47301533  0.50724744  0.30633028    -0.62340
C602        C  0.45078360  0.90563708  0.24201471     0.91950
O603        O  0.02864093  0.50731321  0.14713144    -0.74290
C604        C  0.08260927  0.94218920  0.19342568     0.75390
C605        C  0.35864206  0.95399906  0.21209722     0.76370
O606        O  0.43734631  0.56141540  0.28675723    -0.59540
O607        O  0.37751822  0.97252809  0.25211922    -0.51480
O608        O  0.03651866  0.51109286  0.30327086    -0.77550
O609        O  0.46794661  0.50895246  0.15116433    -0.61550
C610        C  0.49770700  0.50832483  0.12765040     0.90170
C611        C  0.50445933  0.50808030  0.32621289     0.91390
C612        C  0.14649948  0.57072302  0.25703617     0.75740
O613        O  0.09781887  0.48368451  0.17708184    -0.50870
O614        O  0.11463660  0.06459018  0.28111652    -0.52030
O615        O  0.49233980  0.92676448  0.23476388    -0.64880
O616        O  0.07006797  0.58296842  0.19495589    -0.66010
C617        C  0.08923624  0.73930013  0.16491757    -0.05690
C618        C  0.13558050  0.76843406  0.17633642     0.00240
C619        C  0.15299713  0.73876145  0.16782723    -0.08330
C620        C  0.12741335  0.68855831  0.18068000    -0.05710
C621        C  0.08093954  0.66263870  0.18647764     0.00220
C622        C  0.06103986  0.68697461  0.17216868    -0.08240
C623        C  0.01094189  0.66058771  0.16793129     0.62130
H624        H  0.07428951  0.75821574  0.15583614     0.12830
H625        H  0.14270502  0.66805324  0.18063869     0.12840
C626        C  0.18279582  0.74635866  0.12753409     0.62370
F627        F  0.00026298  0.68693720  0.14311817    -0.22800
F628        F  0.49544570  0.65899261  0.21205500    -0.20130
F629        F  0.98992898  0.61214972  0.14495448    -0.19800
F630        F  0.21827165  0.74551654  0.14158249    -0.19860
F631        F  0.19928805  0.79091138  0.10861218    -0.20180
F632        F  0.15788223  0.70715190  0.09227147    -0.22850
C633        C  0.07673581  0.86440645  0.20537721    -0.05690
C634        C  0.10027273  0.90982535  0.18554426     0.00240
C635        C  0.14097376  0.92406738  0.16479704    -0.08330
C636        C  0.15887268  0.89541356  0.17058755    -0.05710
C637        C  0.13716103  0.85062368  0.19445999     0.00220
C638        C  0.09326883  0.83492997  0.21093003    -0.08240
C639        C  0.06048714  0.79089413  0.23854499     0.62130
H640        H  0.04461042  0.85252240  0.21945957     0.12830
H641        H  0.19195432  0.91218732  0.15919866     0.12840
C642        C  0.16596809  0.46958265  0.13685407     0.62370
F643        F  0.05850139  0.81182884  0.28133630    -0.22800
F644        F  0.06924536  0.75665792  0.24669858    -0.20130
F645        F  0.01867191  0.76333142  0.21532211    -0.19800
F646        F  0.18194127  0.51387212  0.16555877    -0.19860
F647        F  0.13720126  0.46424397  0.10224328    -0.20180
F648        F  0.20227385  0.47405974  0.11560696    -0.22850
C649        C  0.23668140  0.87940305  0.16116454    -0.05690
C650        C  0.21371141  0.85115674  0.19901878     0.00240
C651        C  0.24264710  0.85444502  0.23458350    -0.08330
C652        C  0.28517829  0.89944148  0.24280325    -0.05710
C653        C  0.30906315  0.92445655  0.20504099     0.00220
C654        C  0.28431575  0.91583610  0.16335803    -0.08240
C655        C  0.30432628  0.44860585  0.12374398     0.62130
H656        H  0.21781691  0.87378384  0.12975526     0.12830
H657        H  0.30338833  0.90607074  0.27517529     0.12840
C658        C  0.24410067  0.80992678  0.24322193     0.62370
F659        F  0.28340857  0.47269526  0.12067717    -0.22800
F660        F  0.29629961  0.41829572  0.08260742    -0.20130
F661        F  0.34991566  0.48613506  0.12978046    -0.19800
F662        F  0.26976482  0.80520296  0.21020342    -0.19860
F663        F  0.20288528  0.76466310  0.24182341    -0.20180
F664        F  0.26435735  0.81888933  0.28644165    -0.22850
C665        C  0.08527208  0.72725118  0.40494123    -0.05690
C666        C  0.11770076  0.76943272  0.43597897     0.00240
C667        C  0.11633638  0.75886235  0.98355750    -0.08330
C668        C  0.09623055  0.70779258  0.99265405    -0.05710
C669        C  0.07307915  0.66730286  0.45728591     0.00220
C670        C  0.06556361  0.67699240  0.41318117    -0.08240
C671        C  0.04152562  0.63525714  0.37275866     0.62130
H672        H  0.07857678  0.73215628  0.37114958     0.12830
H673        H  0.09785721  0.69920425  0.02764160     0.12840
C674        C  0.13474463  0.79877681  0.02541327     0.62370
F675        F  0.04197869  0.65360735  0.33117360    -0.22800
F676        F  0.99699923  0.60030521  0.38191146    -0.20130
F677        F  0.06340551  0.61185798  0.36634173    -0.19800
F678        F  0.12924948  0.83652173  0.01848950    -0.19860
F679        F  0.17960733  0.81941988  0.03455823    -0.20180
F680        F  0.11174152  0.77729828  0.06468779    -0.22850
C681        C  0.07275180  0.86688270  0.44971321    -0.05690
C682        C  0.10181988  0.91940086  0.44937225     0.00240
C683        C  0.14554771  0.94056158  0.43456283    -0.08330
C684        C  0.16066717  0.90942238  0.42645042    -0.05710
C685        C  0.13205318  0.85559095  0.42543095     0.00220
C686        C  0.08483163  0.83517554  0.42900113    -0.08240
C687        C  0.04862102  0.79296476  0.39446936     0.62130
H688        H  0.03784164  0.85057842  0.45717424     0.12830
H689        H  0.19591933  0.92887484  0.42203183     0.12840
C690        C  0.17669781  0.49633422  0.42839122     0.62370
F691        F  0.01917316  0.80390176  0.38028476    -0.22800
F692        F  0.02338937  0.74779261  0.41394618    -0.20130
F693        F  0.06770032  0.78831243  0.35479132    -0.19800
F694        F  0.18405092  0.52397329  0.97068541    -0.19860
F695        F  0.15756084  0.50885933  0.39652521    -0.20180
F696        F  0.21754377  0.50888781  0.41245849    -0.22850
C697        C  0.22151292  0.89350471  0.47333628    -0.05690
C698        C  0.20121657  0.84882565  0.44200074     0.00240
C699        C  0.23139390  0.83548533  0.42857399    -0.08330
C700        C  0.27711458  0.87482831  0.42416947    -0.05710
C701        C  0.29765474  0.91972707  0.45457546     0.00220
C702        C  0.26884959  0.92889264  0.48044711    -0.08240
C703        C  0.28439585  0.97951836  0.00655319     0.62130
H704        H  0.20044884  0.90262584  0.49125009     0.12830
H705        H  0.29865732  0.86497214  0.40811411     0.12840
C706        C  0.22805237  0.79129999  0.44735635     0.62370
F707        F  0.25725556  0.47174389  0.04335292    -0.22800
F708        F  0.27935392  0.50679281  0.47660728    -0.20130
F709        F  0.32835290  0.00775985  0.02397333    -0.19800
F710        F  0.23842212  0.76789402  0.41270424    -0.19860
F711        F  0.18668463  0.75629506  0.46342405    -0.20180
F712        F  0.25895977  0.80886140  0.48459261    -0.22850
C713        C  0.14241454  0.77817842  0.28193583    -0.05690
C714        C  0.15858930  0.82320189  0.26153845     0.00240
C715        C  0.18040438  0.86900232  0.29366264    -0.08330
C716        C  0.18417444  0.86567162  0.34158513    -0.05710
C717        C  0.16015155  0.81998648  0.36220427     0.00220
C718        C  0.14614057  0.77637654  0.33031483    -0.08240
C719        C  0.15624740  0.73898399  0.33999364     0.62130
H720        H  0.12939741  0.74372958  0.25925174     0.12830
H721        H  0.20729650  0.89959005  0.36336944     0.12840
C722        C  0.19873105  0.92224219  0.28066096     0.62370
F723        F  0.12864812  0.69332123  0.31233213    -0.22800
F724        F  0.15378345  0.72808237  0.38471916    -0.20130
F725        F  0.19993440  0.76178030  0.32944817    -0.19800
F726        F  0.16343515  0.92523058  0.27064454    -0.19860
F727        F  0.22638171  0.93544465  0.24375133    -0.20180
F728        F  0.22411640  0.95908525  0.31721749    -0.22850
C729        C  0.26888906  0.67190329  0.29945055    -0.05690
C730        C  0.28777703  0.65112129  0.27225699     0.00240
C731        C  0.26027933  0.59694275  0.27275127    -0.08330
C732        C  0.21417848  0.57156743  0.26210375    -0.05710
C733        C  0.19405264  0.59693436  0.27321040     0.00220
C734        C  0.22149410  0.64663335  0.29654247    -0.08240
C735        C  0.20244899  0.67511402  0.31241298     0.62130
H736        H  0.29000853  0.70621277  0.32258937     0.12830
H737        H  0.19313001  0.03057922  0.25352302     0.12840
C738        C  0.26945723  0.57533145  0.31159608     0.62370
F739        F  0.23617808  0.72196154  0.33445213    -0.22800
F740        F  0.16878778  0.64881484  0.34299332    -0.20130
F741        F  0.18525954  0.68150810  0.27356621    -0.19800
F742        F  0.23048092  0.54204607  0.33352288    -0.19860
F743        F  0.29823096  0.61438281  0.34476165    -0.20180
F744        F  0.28798877  0.05001523  0.29527138    -0.22850
C745        C  0.43924769  0.82078997  0.24467822    -0.05690
C746        C  0.42242690  0.85028405  0.25235101     0.00240
C747        C  0.38080616  0.82670504  0.27392949    -0.08330
C748        C  0.35352645  0.77316385  0.27407638    -0.05710
C749        C  0.37022214  0.74246493  0.26956796     0.00220
C750        C  0.41804979  0.77273414  0.26243883    -0.08240
C751        C  0.45018569  0.76642216  0.28802129     0.62130
H752        H  0.47263136  0.83860332  0.23159493     0.12830
H753        H  0.31872178  0.75744848  0.27520052     0.12840
C754        C  0.36466579  0.85683256  0.29737631     0.62370
F755        F  0.49283241  0.81131352  0.29236811    -0.22800
F756        F  0.45269435  0.72893633  0.26493315    -0.20130
F757        F  0.43770043  0.75633796  0.33302894    -0.19800
F758        F  0.34960142  0.87194826  0.26386438    -0.19860
F759        F  0.39930129  0.89906241  0.32471650    -0.20180
F760        F  0.33018354  0.82803929  0.32650235    -0.22850
C761        C  0.36838923  0.58572553  0.22739878    -0.05690
C762        C  0.39961034  0.60040085  0.26350689     0.00240
C763        C  0.40114825  0.63130377  0.30282618    -0.08330
C764        C  0.37731644  0.65390281  0.29964648    -0.05710
C765        C  0.35392139  0.64808966  0.25804566     0.00220
C766        C  0.34311663  0.60521333  0.22539692    -0.08240
C767        C  0.30411018  0.57387147  0.18935707     0.62130
H768        H  0.36193802  0.55619651  0.20034530     0.12830
H769        H  0.37670980  0.67615860  0.32947753     0.12840
C770        C  0.42805604  0.64102734  0.34683692     0.62370
F771        F  0.32046721  0.57464125  0.14579293    -0.22800
F772        F  0.27671804  0.58951047  0.18776109    -0.20130
F773        F  0.27754675  0.52389054  0.19959775    -0.19800
F774        F  0.47279691  0.66453386  0.33700181    -0.19860
F775        F  0.41187232  0.59528020  0.36408173    -0.20180
F776        F  0.42515892  0.67202408  0.38101236    -0.22850
C777        C  0.28396081  0.68663113  0.49467941    -0.05690
C778        C  0.30023700  0.66809560  0.02552169     0.00240
C779        C  0.26464746  0.62263605  0.04517447    -0.08330
C780        C  0.21983584  0.60730769  0.04244020    -0.05710
C781        C  0.20456960  0.62136123  0.00765592     0.00220
C782        C  0.23752773  0.65895757  0.48041537    -0.08240
C783        C  0.22439395  0.66675752  0.43457412     0.62130
H784        H  0.30690827  0.72003180  0.47799285     0.12830
H785        H  0.19492137  0.57637606  0.06182557     0.12840
C786        C  0.26840366  0.58382790  0.06481652     0.62370
F787        F  0.26130240  0.70594816  0.41412075    -0.22800
F788        F  0.19287007  0.67738966  0.44114092    -0.20130
F789        F  0.20617617  0.62272787  0.40446183    -0.19800
F790        F  0.25534970  0.58040065  0.10966124    -0.19860
F791        F  0.31030269  0.59399774  0.06306490    -0.20180
F792        F  0.23880394  0.53682894  0.04004511    -0.22850
C793        C  0.42183844  0.85107357  0.04863511    -0.05690
C794        C  0.42570163  0.85813266  0.50170160     0.00240
C795        C  0.40917148  0.81585447  0.46850769    -0.08330
C796        C  0.38800003  0.76714063  0.48392346    -0.05710
C797        C  0.38141842  0.75763450  0.53164124     0.00220
C798        C  0.40516495  0.80359143  0.06477398    -0.08240
C799        C  0.42258138  0.80887647  0.11449296     0.62130
H800        H  0.43555768  0.88488407  0.07310213     0.12830
H801        H  0.37643659  0.73564326  0.45790954     0.12840
C802        C  0.41373297  0.82246314  0.41696481     0.62370
F803        F  0.45754089  0.85868611  0.12985075    -0.22800
F804        F  0.44072902  0.78181987  0.11617124    -0.20130
F805        F  0.38950639  0.79481771  0.14593696    -0.19800
F806        F  0.45884225  0.85113495  0.40707496    -0.19860
F807        F  0.39497707  0.84719598  0.40516127    -0.20180
F808        F  0.39185768  0.77615821  0.38971476    -0.22850
C809        C  0.42289275  0.70024514  0.01856333    -0.05690
C810        C  0.37549858  0.67474265  0.51349532     0.00240
C811        C  0.35353867  0.62979180  0.48025591    -0.08330
C812        C  0.37328168  0.60309561  0.47272702    -0.05710
C813        C  0.41635910  0.62263754  0.48973210     0.00220
C814        C  0.44353987  0.67425752  0.00834647    -0.08240
C815        C  0.49327715  0.70067742  0.01801819     0.62130
H816        H  0.44316762  0.73898461  0.03495061     0.12830
H817        H  0.35524525  0.56633156  0.45222938     0.12840
C818        C  0.31548916  0.61337397  0.44539047     0.62370
F819        F  0.51527667  0.75219603  0.03169855    -0.22800
F820        F  0.51137177  0.69486136  0.97794241    -0.20130
F821        F  0.50039936  0.67888159  0.05241249    -0.19800
F822        F  0.32175120  0.65486817  0.42764243    -0.19860
F823        F  0.27453333  0.58619851  0.46465825    -0.20180
F824        F  0.31376805  0.58176328  0.40818220    -0.22850
C825        C  0.32080834  0.70241636  0.12045692    -0.05690
C826        C  0.35204948  0.69557111  0.09686109     0.00240
C827        C  0.37648984  0.68480206  0.12684249    -0.08330
C828        C  0.37490609  0.69384354  0.17496772    -0.05710
C829        C  0.33715132  0.68724549  0.19657616     0.00220
C830        C  0.30796846  0.69066263  0.16671409    -0.08240
C831        C  0.26257459  0.67972255  0.17916744     0.62130
H832        H  0.30427565  0.71482960  0.10106095     0.12830
H833        H  0.40189752  0.70022470  0.19665533     0.12840
C834        C  0.40733062  0.66788824  0.11479748     0.62370
F835        F  0.24131526  0.68341944  0.14212645    -0.22800
F836        F  0.26675957  0.71299717  0.21553555    -0.20130
F837        F  0.23416738  0.63055753  0.18968868    -0.19800
F838        F  0.44940195  0.70886334  0.10515265    -0.19860
F839        F  0.38874113  0.62848620  0.07985539    -0.20180
F840        F  0.41408615  0.64843406  0.15187260    -0.22850
C841        C  0.35281412  0.69877974  0.54179385    -0.02400
C842        C  0.33649708  0.68246625  0.75093870    -0.02400
C843        C  0.15239418  0.82264068  0.91693429    -0.02400
C844        C  0.16112217  0.82335316  0.70633941    -0.02400
C845        C  0.43028744  0.58722248  0.98497477     0.76540
Tb846      Tb  0.05973547  0.51804947  0.97936902     1.80740
O847        O  0.42200334  0.55846455  0.94797743    -0.51480
O848        O  0.37452311  0.95946225  0.92945181    -0.58930
C849        C  0.05110128  0.61452856  0.96789419     0.92360
O850        O  0.13497304  0.57847766  0.45827303    -0.58450
Tb851      Tb  0.44347741  0.50880479  0.97556243     1.78060
O852        O  0.08744767  0.97160262  0.00015344    -0.58950
O853        O  0.42798480  0.92888195  0.98265252    -0.77760
O854        O  0.00869140  0.58673217  0.96476066    -0.77080
O855        O  0.46568809  0.50810822  0.55394917    -0.62340
C856        C  0.45057781  0.91126026  0.98980132     0.91950
O857        O  0.03697862  0.51383113  0.90102964    -0.74290
C858        C  0.08499311  0.45114440  0.95986548     0.75390
C859        C  0.34797803  0.95057096  0.96195904     0.76370
O860        O  0.44640346  0.57800735  0.51789451    -0.59540
O861        O  0.36879651  0.96820376  0.50131438    -0.51480
O862        O  0.03114201  0.51519495  0.55439590    -0.77550
O863        O  0.46976388  0.50251734  0.89968585    -0.61550
C864        C  0.50349848  0.50732458  0.87890946     0.90170
C865        C  0.49788403  0.51060757  0.57537048     0.91390
C866        C  0.15432152  0.58938555  0.49791289     0.75740
O867        O  0.06909162  0.46282990  0.92915603    -0.50870
O868        O  0.12628271  0.06595038  0.52847251    -0.52030
O869        O  0.49350866  0.93755186  0.99090217    -0.64880
O870        O  0.07464977  0.59882709  0.97749934    -0.66010
C871        C  0.42511993  0.57734349  0.75635437     0.76540
Tb872      Tb  0.05621697  0.50846050  0.72259879     1.80740
O873        O  0.43060925  0.56459759  0.71560380    -0.51480
O874        O  0.38609924  0.96081290  0.68123020    -0.58930
C875        C  0.05470809  0.60981561  0.70221139     0.92360
O876        O  0.13353905  0.54872500  0.71646883    -0.58450
Tb877      Tb  0.45195982  0.51220753  0.73142056     1.78060
O878        O  0.05225559  0.93254398  0.72142538    -0.58950
O879        O  0.43287978  0.92986006  0.74128333    -0.77760
O880        O  0.01828834  0.59359740  0.72285008    -0.77080
O881        O  0.47301525  0.50724736  0.80633023    -0.62340
C882        C  0.45078354  0.90563694  0.74201463     0.91950
O883        O  0.02864092  0.50731305  0.64713140    -0.74290
C884        C  0.08260919  0.94218901  0.69342563     0.75390
C885        C  0.35864198  0.95399891  0.71209723     0.76370
O886        O  0.43734646  0.56141555  0.78675716    -0.59540
O887        O  0.37751816  0.97252795  0.75211922    -0.51480
O888        O  0.03651865  0.51109277  0.80327082    -0.77550
O889        O  0.46794675  0.50895253  0.65116431    -0.61550
C890        C  0.49770711  0.50832481  0.62765040     0.90170
C891        C  0.50445923  0.50808023  0.82621288     0.91390
C892        C  0.14649940  0.57072275  0.75703617     0.75740
O893        O  0.09781881  0.48368429  0.67708180    -0.50870
O894        O  0.11463666  0.06459014  0.78111655    -0.52030
O895        O  0.49233974  0.92676433  0.73476383    -0.64880
O896        O  0.07006791  0.58296824  0.69495590    -0.66010
C897        C  0.08923617  0.73929992  0.66491754    -0.05690
C898        C  0.13558043  0.76843388  0.67633644     0.00240
C899        C  0.15299708  0.73876129  0.66782731    -0.08330
C900        C  0.12741331  0.68855817  0.68068013    -0.05710
C901        C  0.08093949  0.66263853  0.68647769     0.00220
C902        C  0.06103980  0.68697441  0.67216866    -0.08240
C903        C  0.01094183  0.66058748  0.66793123     0.62130
H904        H  0.07428943  0.75821550  0.65583606     0.12830
H905        H  0.14270499  0.66805311  0.68063888     0.12840
C906        C  0.18279562  0.74635835  0.62753406     0.62370
F907        F  0.00026291  0.68693695  0.64311807    -0.22800
F908        F  0.49544593  0.65899245  0.71205481    -0.20130
F909        F  0.98992894  0.61214949  0.64495444    -0.19800
F910        F  0.21827124  0.74551576  0.64158226    -0.19860
F911        F  0.19928815  0.79091122  0.60861232    -0.20180
F912        F  0.15788178  0.70715174  0.59227139    -0.22850
C913        C  0.07673565  0.86440619  0.70537703    -0.05690
C914        C  0.10027258  0.90982511  0.68554412     0.00240
C915        C  0.14097360  0.92406713  0.66479684    -0.08330
C916        C  0.15887249  0.89541327  0.67058727    -0.05710
C917        C  0.13716090  0.85062346  0.69445979     0.00220
C918        C  0.09326872  0.83492975  0.71092987    -0.08240
C919        C  0.06048711  0.79089397  0.73854494     0.62130
H920        H  0.04461028  0.85252214  0.71945940     0.12830
H921        H  0.19195410  0.91218699  0.65919829     0.12840
C922        C  0.16596797  0.46958242  0.63685394     0.62370
F923        F  0.05850143  0.81182877  0.78133623    -0.22800
F924        F  0.06924540  0.75665782  0.74669857    -0.20130
F925        F  0.01867184  0.76333117  0.71532215    -0.19800
F926        F  0.18194119  0.51387186  0.66555870    -0.19860
F927        F  0.13720113  0.46424381  0.60224320    -0.20180
F928        F  0.20227370  0.47405950  0.61560676    -0.22850
C929        C  0.23668135  0.87940293  0.66116449    -0.05690
C930        C  0.21371134  0.85115661  0.69901872     0.00240
C931        C  0.24264700  0.85444487  0.73458346    -0.08330
C932        C  0.28517817  0.89944136  0.74280326    -0.05710
C933        C  0.30906307  0.92445643  0.70504101     0.00220
C934        C  0.28431570  0.91583600  0.66335803    -0.08240
C935        C  0.30432622  0.44860579  0.62374386     0.62130
H936        H  0.21781689  0.87378368  0.62975517     0.12830
H937        H  0.30338820  0.90607063  0.77517531     0.12840
C938        C  0.24410069  0.80992664  0.74322164     0.62370
F939        F  0.28340846  0.47269515  0.62067709    -0.22800
F940        F  0.29629951  0.41829562  0.58260732    -0.20130
F941        F  0.34991560  0.48613504  0.62978027    -0.19800
F942        F  0.26976462  0.80520282  0.71020282    -0.19860
F943        F  0.20288532  0.76466296  0.74182339    -0.20180
F944        F  0.26435767  0.81888917  0.78644117    -0.22850
C945        C  0.08527219  0.72725133  0.90494102    -0.05690
C946        C  0.11770074  0.76943288  0.93597885     0.00240
C947        C  0.11633641  0.75886226  0.48355765    -0.08330
C948        C  0.09623053  0.70779249  0.49265426    -0.05710
C949        C  0.07307918  0.66730296  0.95728568     0.00220
C950        C  0.06556373  0.67699254  0.91318092    -0.08240
C951        C  0.04152584  0.63525733  0.87275834     0.62130
H952        H  0.07857692  0.73215646  0.87114936     0.12830
H953        H  0.09785720  0.69920418  0.52764181     0.12840
C954        C  0.13474484  0.79877680  0.52541335     0.62370
F955        F  0.04197910  0.65360762  0.83117327    -0.22800
F956        F  0.99699939  0.60030542  0.88191095    -0.20130
F957        F  0.06340568  0.61185811  0.86634153    -0.19800
F958        F  0.12924976  0.83652176  0.51848958    -0.19860
F959        F  0.17960754  0.81941978  0.53455818    -0.20180
F960        F  0.11174182  0.77729839  0.56468795    -0.22850
C961        C  0.07275157  0.86688281  0.94971307    -0.05690
C962        C  0.10181967  0.91940099  0.94937229     0.00240
C963        C  0.14554756  0.94056175  0.93456306    -0.08330
C964        C  0.16066707  0.90942258  0.92645076    -0.05710
C965        C  0.13205306  0.85559114  0.92543105     0.00220
C966        C  0.08483149  0.83517570  0.92900107    -0.08240
C967        C  0.04862090  0.79296474  0.89446941     0.62130
H968        H  0.03784138  0.85057850  0.95717398     0.12830
H969        H  0.19591923  0.92887507  0.92203232     0.12840
C970        C  0.17669783  0.49633432  0.92839155     0.62370
F971        F  0.01917285  0.80390147  0.88028481    -0.22800
F972        F  0.02338944  0.74779264  0.91394631    -0.20130
F973        F  0.06770020  0.78831246  0.85479135    -0.19800
F974        F  0.18405089  0.52397319  0.47068508    -0.19860
F975        F  0.15756093  0.50885950  0.89652552    -0.20180
F976        F  0.21754378  0.50888782  0.91245884    -0.22850
C977        C  0.22151284  0.89350478  0.97333640    -0.05690
C978        C  0.20121651  0.84882585  0.94200069     0.00240
C979        C  0.23139384  0.83548560  0.92857379    -0.08330
C980        C  0.27711447  0.87482868  0.92416910    -0.05710
C981        C  0.29765466  0.91972731  0.95457532     0.00220
C982        C  0.26884953  0.92889274  0.98044720    -0.08240
C983        C  0.28439593  0.97951828  0.50655305     0.62130
H984        H  0.20044875  0.90262582  0.99125032     0.12830
H985        H  0.29865720  0.86497261  0.90811353     0.12840
C986        C  0.22805269  0.79130067  0.94735667     0.62370
F987        F  0.25725590  0.47174408  0.54335281    -0.22800
F988        F  0.27935381  0.50679264  0.97660742    -0.20130
F989        F  0.32835302  0.00775984  0.52397308    -0.19800
F990        F  0.23842283  0.76789475  0.91270491    -0.19860
F991        F  0.18668497  0.75629556  0.96342431    -0.20180
F992        F  0.25896002  0.80886264  0.98459311    -0.22850
C993        C  0.14241472  0.77817859  0.78193586    -0.05690
C994        C  0.15858927  0.82320194  0.76153837     0.00240
C995        C  0.18040419  0.86900244  0.79366246    -0.08330
C996        C  0.18417408  0.86567190  0.84158503    -0.05710
C997        C  0.16015148  0.81998678  0.86220424     0.00220
C998        C  0.14614085  0.77637691  0.83031488    -0.08240
C999        C  0.15624789  0.73898457  0.83999386     0.62130
H1000       H  0.12939768  0.74372972  0.75925186     0.12830
H1001       H  0.20729578  0.89959038  0.86336930     0.12840
C1002       C  0.19873086  0.92224225  0.78066059     0.62370
F1003       F  0.12864868  0.69332172  0.81233246    -0.22800
F1004       F  0.15378396  0.72808308  0.88471942    -0.20130
F1005       F  0.19993493  0.76178098  0.82944841    -0.19800
F1006       F  0.16343497  0.92523063  0.77064409    -0.19860
F1007       F  0.22638149  0.93544454  0.74375095    -0.20180
F1008       F  0.22411626  0.95908545  0.81721701    -0.22850
C1009       C  0.26888894  0.67190325  0.79945045    -0.05690
C1010       C  0.28777696  0.65112124  0.77225695     0.00240
C1011       C  0.26027933  0.59694272  0.77275139    -0.08330
C1012       C  0.21417848  0.57156730  0.76210384    -0.05710
C1013       C  0.19405256  0.59693416  0.77321041     0.00220
C1014       C  0.22149395  0.64663318  0.79654245    -0.08240
C1015       C  0.20244872  0.67511370  0.81241305     0.62130
H1016       H  0.29000835  0.70621274  0.82258926     0.12830
H1017       H  0.19313017  0.03057923  0.75352319     0.12840
C1018       C  0.26945730  0.57533166  0.81159637     0.62370
F1019       F  0.23617765  0.72196112  0.83445249    -0.22800
F1020       F  0.16878736  0.64881428  0.84299320    -0.20130
F1021       F  0.18525941  0.68150798  0.77356629    -0.19800
F1022       F  0.23048104  0.54204643  0.83352331    -0.19860
F1023       F  0.29823110  0.61438320  0.84476178    -0.20180
F1024       F  0.28798896  0.05001543  0.79527160    -0.22850
C1025       C  0.43924756  0.82078979  0.74467793    -0.05690
C1026       C  0.42242683  0.85028391  0.75235088     0.00240
C1027       C  0.38080615  0.82670496  0.77392947    -0.08330
C1028       C  0.35352642  0.77316377  0.77407635    -0.05710
C1029       C  0.37022209  0.74246483  0.76956786     0.00220
C1030       C  0.41804972  0.77273401  0.76243861    -0.08240
C1031       C  0.45018570  0.76642220  0.78802115     0.62130
H1032       H  0.47263118  0.83860309  0.73159453     0.12830
H1033       H  0.31872176  0.75744844  0.77520047     0.12840
C1034       C  0.36466588  0.85683253  0.79737641     0.62370
F1035       F  0.49283237  0.81131365  0.79236797    -0.22800
F1036       F  0.45269447  0.72893642  0.76493308    -0.20130
F1037       F  0.43770044  0.75633804  0.83302881    -0.19800
F1038       F  0.34960149  0.87194830  0.76386455    -0.19860
F1039       F  0.39930145  0.89906234  0.82471657    -0.20180
F1040       F  0.33018366  0.82803928  0.82650249    -0.22850
C1041       C  0.36838909  0.58572536  0.72739887    -0.05690
C1042       C  0.39961034  0.60040086  0.76350688     0.00240
C1043       C  0.40114833  0.63130387  0.80282613    -0.08330
C1044       C  0.37731648  0.65390285  0.79964644    -0.05710
C1045       C  0.35392131  0.64808955  0.75804566     0.00220
C1046       C  0.34311648  0.60521315  0.72539700    -0.08240
C1047       C  0.30411001  0.57387127  0.68935717     0.62130
H1048       H  0.36193784  0.55619626  0.70034545     0.12830
H1049       H  0.37670988  0.67615870  0.82947745     0.12840
C1050       C  0.42805628  0.64102766  0.84683681     0.62370
F1051       F  0.32046703  0.57464099  0.64579302    -0.22800
F1052       F  0.27671789  0.58951029  0.68776116    -0.20130
F1053       F  0.27754658  0.52389036  0.69959791    -0.19800
F1054       F  0.47279713  0.66453434  0.83700155    -0.19860
F1055       F  0.41187278  0.59528062  0.86408169    -0.20180
F1056       F  0.42515912  0.67202437  0.88101224    -0.22850
C1057       C  0.28396090  0.68663138  0.99467944    -0.05690
C1058       C  0.30023694  0.66809535  0.52552164     0.00240
C1059       C  0.26464741  0.62263581  0.54517445    -0.08330
C1060       C  0.21983579  0.60730746  0.54244022    -0.05710
C1061       C  0.20456953  0.62136099  0.50765595     0.00220
C1062       C  0.23752782  0.65895782  0.98041535    -0.08240
C1063       C  0.22439408  0.66675775  0.93457407     0.62130
H1064       H  0.30690837  0.72003206  0.97799289     0.12830
H1065       H  0.19492133  0.57637583  0.56182559     0.12840
C1066       C  0.26840361  0.58382765  0.56481646     0.62370
F1067       F  0.26130257  0.70594832  0.91412068    -0.22800
F1068       F  0.19287026  0.67738999  0.94114081    -0.20130
F1069       F  0.20617625  0.62272806  0.90446183    -0.19800
F1070       F  0.25534975  0.58040044  0.60966121    -0.19860
F1071       F  0.31030263  0.59399744  0.56306473    -0.20180
F1072       F  0.23880382  0.53682869  0.54004508    -0.22850
C1073       C  0.42183849  0.85107335  0.54863505    -0.05690
C1074       C  0.42570166  0.85813289  0.00170167     0.00240
C1075       C  0.40917161  0.81585471  0.96850777    -0.08330
C1076       C  0.38800015  0.76714087  0.98392354    -0.05710
C1077       C  0.38141848  0.75763474  0.03164132     0.00220
C1078       C  0.40516497  0.80359119  0.56477390    -0.08240
C1079       C  0.42258144  0.80887620  0.61449285     0.62130
H1080       H  0.43555781  0.88488385  0.57310207     0.12830
H1081       H  0.37643677  0.73564351  0.95790962     0.12840
C1082       C  0.41373319  0.82246340  0.91696490     0.62370
F1083       F  0.45754101  0.85868582  0.62985062    -0.22800
F1084       F  0.44072902  0.78181953  0.61617107    -0.20130
F1085       F  0.38950649  0.79481748  0.64593690    -0.19800
F1086       F  0.45884250  0.85113526  0.90707515    -0.19860
F1087       F  0.39497728  0.84719620  0.90516127    -0.20180
F1088       F  0.39185799  0.77615848  0.88971484    -0.22850
C1089       C  0.42289275  0.70024502  0.51856330    -0.05690
C1090       C  0.37549859  0.67474283  0.01349540     0.00240
C1091       C  0.35353862  0.62979191  0.98025608    -0.08330
C1092       C  0.37328154  0.60309562  0.97272728    -0.05710
C1093       C  0.41635899  0.62263755  0.98973228     0.00220
C1094       C  0.44353993  0.67425747  0.50834639    -0.08240
C1095       C  0.49327720  0.70067737  0.51801824     0.62130
H1096       H  0.44316758  0.73898445  0.53495066     0.12830
H1097       H  0.35524505  0.56633154  0.95222969     0.12840
C1098       C  0.31548920  0.61337417  0.94539056     0.62370
F1099       F  0.51527669  0.75219596  0.53169866    -0.22800
F1100       F  0.51137196  0.69486138  0.47794254    -0.20130
F1101       F  0.50039931  0.67888147  0.55241256    -0.19800
F1102       F  0.32175133  0.65486843  0.92764255    -0.19860
F1103       F  0.27453333  0.58619872  0.96465824    -0.20180
F1104       F  0.31376815  0.58176353  0.90818228    -0.22850
C1105       C  0.32080833  0.70241618  0.62045684    -0.05690
C1106       C  0.35204943  0.69557088  0.59686102     0.00240
C1107       C  0.37648975  0.68480176  0.62684241    -0.08330
C1108       C  0.37490601  0.69384325  0.67496765    -0.05710
C1109       C  0.33715127  0.68724532  0.69657609     0.00220
C1110       C  0.30796844  0.69066248  0.66671401    -0.08240
C1111       C  0.26257459  0.67972245  0.67916736     0.62130
H1112       H  0.30427568  0.71482946  0.60106087     0.12830
H1113       H  0.40189742  0.70022436  0.69665526     0.12840
C1114       C  0.40733051  0.66788790  0.61479739     0.62370
F1115       F  0.24131523  0.68341920  0.64212632    -0.22800
F1116       F  0.26675963  0.71299720  0.71553537    -0.20130
F1117       F  0.23416739  0.63055749  0.68968876    -0.19800
F1118       F  0.44940187  0.70886299  0.60515263    -0.19860
F1119       F  0.38874105  0.62848591  0.57985525    -0.20180
F1120       F  0.41408598  0.64843364  0.65187249    -0.22850
C1121       C  0.85280866  0.19878247  0.04180008    -0.02400
C1122       C  0.83649593  0.18246799  0.25094463    -0.02400
C1123       C  0.65240024  0.32264131  0.41692515    -0.02400
C1124       C  0.66112839  0.32335257  0.20633062    -0.02400
C1125       C  0.93028223  0.08722709  0.48498047     0.76540
Tb1126     Tb  0.55973127  0.01804565  0.47936377     1.80740
O1127       O  0.92200438  0.05847346  0.44798171    -0.51480
O1128       O  0.87452870  0.45946568  0.42945394    -0.58930
C1129       C  0.55109874  0.11452702  0.46788856     0.92360
O1130       O  0.63496995  0.07847376  0.95827083    -0.58450
Tb1131     Tb  0.94347403  0.00881148  0.47557091     1.78060
O1132       O  0.58744844  0.47159748  0.50014557    -0.58950
O1133       O  0.92798929  0.42888341  0.48265131    -0.77760
O1134       O  0.50868853  0.08673269  0.46475998    -0.77080
O1135       O  0.96568499  0.00811309  0.05395714    -0.62340
C1136       C  0.95058218  0.41126253  0.48980386     0.91950
O1137       O  0.53697376  0.01382633  0.40102452    -0.74290
C1138       C  0.58498871  0.95114022  0.45986174     0.75390
C1139       C  0.84798258  0.45057195  0.46196048     0.76370
O1140       O  0.94639290  0.07800888  0.01790285    -0.59540
O1141       O  0.86879954  0.46820291  0.00131651    -0.51480
O1142       O  0.53113886  0.01519290  0.05439074    -0.77550
O1143       O  0.96976211  0.00252409  0.39969443    -0.61550
C1144       C  0.00349499  0.00732769  0.37891697     0.90170
C1145       C  0.99788097  0.01061174  0.07537786     0.91390
C1146       C  0.65431652  0.08938315  0.99791202     0.75740
O1147       O  0.56909104  0.96282889  0.42915120    -0.50870
O1148       O  0.62628932  0.56594484  0.02846570    -0.52030
O1149       O  0.99351322  0.43755494  0.49090887    -0.64880
O1150       O  0.57464653  0.09882277  0.47748721    -0.66010
C1151       C  0.92512027  0.07734800  0.25636146     0.76540
Tb1152     Tb  0.55621525  0.00845866  0.22259402     1.80740
O1153       O  0.93061176  0.06460437  0.21561105    -0.51480
O1154       O  0.88610466  0.46080809  0.18123418    -0.58930
C1155       C  0.55470560  0.10981345  0.20220651     0.92360
O1156       O  0.63353767  0.04871888  0.21646814    -0.58450
Tb1157     Tb  0.95195744  0.01221027  0.23142725     1.78060
O1158       O  0.55226514  0.43254816  0.22142245    -0.58950
O1159       O  0.93288361  0.42986446  0.24129397    -0.77760
O1160       O  0.51828706  0.09359520  0.22284773    -0.77080
O1161       O  0.97301226  0.00725101  0.30633754    -0.62340
C1162       C  0.95078564  0.40563910  0.24202063     0.91950
O1163       O  0.52863925  0.00731277  0.14712666    -0.74290
C1164       C  0.58261785  0.44219308  0.19342149     0.75390
C1165       C  0.85864516  0.45399501  0.21209820     0.76370
O1166       O  0.93734332  0.06141677  0.28676440    -0.59540
O1167       O  0.87751865  0.47252964  0.25212074    -0.51480
O1168       O  0.53651556  0.01109074  0.30326600    -0.77550
O1169       O  0.96794347  0.00895445  0.15117147    -0.61550
C1170       C  0.99770472  0.00832870  0.12765781     0.90170
C1171       C  0.00445570  0.00808306  0.32622033     0.91390
C1172       C  0.64649677  0.07071537  0.25703598     0.75740
O1173       O  0.59781962  0.98368413  0.17708007    -0.50870
O1174       O  0.61463806  0.56458895  0.28110823    -0.52030
O1175       O  0.99234076  0.42676462  0.23476467    -0.64880
O1176       O  0.57006537  0.08296601  0.19494950    -0.66010
C1177       C  0.58923165  0.23930102  0.16492224    -0.05690
C1178       C  0.63557770  0.26843177  0.17632913     0.00240
C1179       C  0.65298974  0.23875569  0.16780788    -0.08330
C1180       C  0.62740692  0.18855210  0.18066024    -0.05710
C1181       C  0.58093542  0.16263641  0.18647188     0.00220
C1182       C  0.56103521  0.18697617  0.17217488    -0.08240
C1183       C  0.51093751  0.16059366  0.16794957     0.62130
H1184       H  0.57428519  0.25821868  0.15584693     0.12830
H1185       H  0.64269649  0.16804413  0.18060891     0.12840
C1186       C  0.68277838  0.24635082  0.12750554     0.62370
F1187       F  0.50025583  0.18694795  0.14314781    -0.22800
F1188       F  0.99544412  0.15899776  0.21205646    -0.20130
F1189       F  0.48991881  0.11215699  0.14496787    -0.19800
F1190       F  0.71824942  0.24549230  0.14153706    -0.19860
F1191       F  0.69927746  0.29091064  0.10859452    -0.20180
F1192       F  0.65785282  0.20715174  0.09224019    -0.22850
C1193       C  0.57674992  0.36441709  0.20538229    -0.05690
C1194       C  0.60028327  0.40983119  0.18554243     0.00240
C1195       C  0.64098156  0.42406977  0.16479064    -0.08330
C1196       C  0.65888039  0.39541549  0.17058054    -0.05710
C1197       C  0.63717057  0.35062818  0.19445662     0.00220
C1198       C  0.59328235  0.33494039  0.21093478    -0.08240
C1199       C  0.56050454  0.29091214  0.23855921     0.62130
H1200       H  0.54462724  0.35253674  0.21946978     0.12830
H1201       H  0.69195989  0.41218592  0.15918651     0.12840
C1202       C  0.66596535  0.96957997  0.13685023     0.62370
F1203       F  0.55853329  0.31185796  0.28135173    -0.22800
F1204       F  0.56925634  0.25666984  0.24670920    -0.20130
F1205       F  0.51868462  0.26335245  0.21534701    -0.19800
F1206       F  0.68193916  0.01386863  0.16555656    -0.19860
F1207       F  0.63719930  0.96424350  0.10223978    -0.20180
F1208       F  0.70227092  0.97405694  0.11560290    -0.22850
C1209       C  0.73668837  0.37940132  0.16115655    -0.05690
C1210       C  0.71371574  0.35114671  0.19900559     0.00240
C1211       C  0.74264843  0.35442282  0.23456633    -0.08330
C1212       C  0.78517943  0.39941813  0.24279378    -0.05710
C1213       C  0.80906665  0.42444623  0.20503762     0.00220
C1214       C  0.78432259  0.41583425  0.16335479    -0.08240
C1215       C  0.80432670  0.94860918  0.12374319     0.62130
H1216       H  0.71782657  0.37378836  0.12974756     0.12830
H1217       H  0.80338649  0.40604108  0.27516590     0.12840
C1218       C  0.74409964  0.30989846  0.24318680     0.62370
F1219       F  0.78340851  0.97269787  0.12067477    -0.22800
F1220       F  0.79630172  0.91829926  0.08260699    -0.20130
F1221       F  0.84991586  0.98613907  0.12978112    -0.19800
F1222       F  0.76975360  0.30517517  0.21015397    -0.19860
F1223       F  0.70288190  0.26463813  0.24179478    -0.20180
F1224       F  0.76436538  0.31884947  0.28639793    -0.22850
C1225       C  0.58528040  0.22724999  0.40493003    -0.05690
C1226       C  0.61770654  0.26943244  0.43596905     0.00240
C1227       C  0.61633817  0.25886245  0.98354872    -0.08330
C1228       C  0.59622912  0.20779225  0.99264683    -0.05710
C1229       C  0.57307861  0.16730172  0.45727900     0.00220
C1230       C  0.56556769  0.17699117  0.41317244    -0.08240
C1231       C  0.54152767  0.13525434  0.37275154     0.62130
H1232       H  0.57858771  0.23215395  0.37113687     0.12830
H1233       H  0.59785232  0.19920380  0.02763518     0.12840
C1234       C  0.63474861  0.29877835  0.02540367     0.62370
F1235       F  0.54198052  0.15360267  0.33116541    -0.22800
F1236       F  0.49700126  0.10030485  0.38190611    -0.20130
F1237       F  0.56340558  0.11185283  0.36633588    -0.19800
F1238       F  0.62925136  0.33652183  0.01848063    -0.19860
F1239       F  0.67961219  0.31942338  0.03454460    -0.20180
F1240       F  0.61174965  0.27730155  0.06468066    -0.22850
C1241       C  0.57276265  0.36689004  0.44970907    -0.05690
C1242       C  0.60183069  0.41940712  0.44936107     0.00240
C1243       C  0.64555668  0.44056501  0.43454725    -0.08330
C1244       C  0.66067396  0.40942362  0.42643388    -0.05710
C1245       C  0.63205934  0.35559235  0.42542014     0.00220
C1246       C  0.58483883  0.33517864  0.42899953    -0.08240
C1247       C  0.54861951  0.29295583  0.39448231     0.62130
H1248       H  0.53785434  0.35058826  0.45717674     0.12830
H1249       H  0.69592448  0.42887450  0.42201425     0.12840
C1250       C  0.67669445  0.99633146  0.42839240     0.62370
F1251       F  0.51916179  0.30388153  0.38030411    -0.22800
F1252       F  0.52340048  0.24779101  0.41397208    -0.20130
F1253       F  0.56768729  0.28829505  0.35479845    -0.19800
F1254       F  0.68404478  0.02396802  0.97068761    -0.19860
F1255       F  0.65755978  0.00885871  0.39652579    -0.20180
F1256       F  0.71754162  0.00888628  0.41246252    -0.22850
C1257       C  0.72151704  0.39350822  0.47332746    -0.05690
C1258       C  0.70122178  0.34882762  0.44199388     0.00240
C1259       C  0.73139961  0.33548659  0.42857181    -0.08330
C1260       C  0.77712085  0.37482900  0.42416956    -0.05710
C1261       C  0.79765969  0.41972810  0.45457469     0.00220
C1262       C  0.76885342  0.42889499  0.48044186    -0.08240
C1263       C  0.78439911  0.47951866  0.00655174     0.62130
H1264       H  0.70045246  0.40263030  0.49123882     0.12830
H1265       H  0.79866431  0.36497229  0.40811727     0.12840
C1266       C  0.72805625  0.29130086  0.44735575     0.62370
F1267       F  0.75724135  0.97173661  0.04335416    -0.22800
F1268       F  0.77934434  0.00679152  0.47661135    -0.20130
F1269       F  0.82835766  0.50776237  0.02396746    -0.19800
F1270       F  0.73842742  0.26789519  0.41270509    -0.19860
F1271       F  0.68668743  0.25629588  0.46342145    -0.20180
F1272       F  0.75896192  0.30886154  0.48459357    -0.22850
C1273       C  0.64242606  0.27818094  0.28192664    -0.05690
C1274       C  0.65860094  0.32320412  0.26152957     0.00240
C1275       C  0.68042141  0.36900534  0.29365314    -0.08330
C1276       C  0.68418820  0.36567398  0.34157657    -0.05710
C1277       C  0.66015987  0.31998835  0.36219525     0.00220
C1278       C  0.64614976  0.27637915  0.33030570    -0.08240
C1279       C  0.65625656  0.23898747  0.33998430     0.62130
H1280       H  0.62940808  0.24373175  0.25924291     0.12830
H1281       H  0.70731205  0.39958911  0.36335964     0.12840
C1282       C  0.69875714  0.42224732  0.28065055     0.62370
F1283       F  0.62865092  0.19332177  0.31232880    -0.22800
F1284       F  0.65379897  0.22809229  0.38471136    -0.20130
F1285       F  0.69994170  0.26178160  0.32942977    -0.19800
F1286       F  0.66346672  0.42524798  0.27064175    -0.19860
F1287       F  0.72640067  0.43544083  0.24373543    -0.20180
F1288       F  0.72415385  0.45908938  0.31720403    -0.22850
C1289       C  0.76888435  0.17189890  0.29945533    -0.05690
C1290       C  0.78777521  0.15112025  0.27226195     0.00240
C1291       C  0.76027935  0.09694136  0.27275463    -0.08330
C1292       C  0.71417843  0.07156345  0.26210475    -0.05710
C1293       C  0.69404969  0.09692692  0.27321246     0.00220
C1294       C  0.72148855  0.14662451  0.29654762    -0.08240
C1295       C  0.70243944  0.17510008  0.31241964     0.62130
H1296       H  0.79000182  0.20620793  0.32259499     0.12830
H1297       H  0.69313179  0.53058197  0.25350321     0.12840
C1298       C  0.76945742  0.07533074  0.31159990     0.62370
F1299       F  0.73616474  0.22194487  0.33446560    -0.22800
F1300       F  0.66877449  0.14879468  0.34299477    -0.20130
F1301       F  0.68525409  0.18149825  0.27357218    -0.19800
F1302       F  0.73048133  0.04204704  0.33352777    -0.19860
F1303       F  0.79823224  0.11438254  0.34476458    -0.20180
F1304       F  0.78799699  0.55002265  0.29526077    -0.22850
C1305       C  0.93924595  0.32078924  0.24467930    -0.05690
C1306       C  0.92242806  0.35028569  0.25235732     0.00240
C1307       C  0.88080966  0.32670849  0.27394096    -0.08330
C1308       C  0.85352829  0.27316701  0.27408866    -0.05710
C1309       C  0.87022210  0.24246634  0.26957488     0.00220
C1310       C  0.91804902  0.27273425  0.26244128    -0.08240
C1311       C  0.95018656  0.26642347  0.28802194     0.62130
H1312       H  0.97262804  0.33860077  0.23159198     0.12830
H1313       H  0.81872403  0.25745296  0.27521697     0.12840
C1314       C  0.86467252  0.35683855  0.29738886     0.62370
F1315       F  0.99283326  0.31131484  0.29236563    -0.22800
F1316       F  0.95269405  0.22893674  0.26493378    -0.20130
F1317       F  0.93770428  0.25634147  0.33303071    -0.19800
F1318       F  0.84960922  0.37195467  0.26387645    -0.19860
F1319       F  0.89931008  0.39906797  0.32472761    -0.20180
F1320       F  0.83019059  0.32804807  0.32651632    -0.22850
C1321       C  0.86838996  0.08572930  0.22740433    -0.05690
C1322       C  0.89961062  0.10040493  0.26351306     0.00240
C1323       C  0.90114839  0.13130788  0.30283202    -0.08330
C1324       C  0.87731655  0.15390660  0.29965172    -0.05710
C1325       C  0.85392105  0.14809233  0.25805084     0.00220
C1326       C  0.84311691  0.10521635  0.22540193    -0.08240
C1327       C  0.80411112  0.07387447  0.18936107     0.62130
H1328       H  0.86193944  0.05620055  0.20035088     0.12830
H1329       H  0.87671031  0.17616326  0.32948235     0.12840
C1330       C  0.92805616  0.14103178  0.34684293     0.62370
F1331       F  0.82046892  0.07464486  0.14579730    -0.22800
F1332       F  0.77671874  0.08951305  0.18776428    -0.20130
F1333       F  0.77754774  0.02389329  0.19960108    -0.19800
F1334       F  0.97279691  0.16453684  0.33700782    -0.19860
F1335       F  0.91187149  0.09528487  0.36408867    -0.20180
F1336       F  0.92515991  0.17202981  0.38101765    -0.22850
C1337       C  0.78395552  0.18663295  0.49468539    -0.05690
C1338       C  0.80023142  0.16809804  0.02552851     0.00240
C1339       C  0.76464180  0.12263808  0.04518091    -0.08330
C1340       C  0.71982966  0.10730787  0.04244404    -0.05710
C1341       C  0.70456410  0.12136005  0.00765786     0.00220
C1342       C  0.73752300  0.15895720  0.48041847    -0.08240
C1343       C  0.72439124  0.16675484  0.43457490     0.62130
H1344       H  0.80690308  0.22003451  0.47799996     0.12830
H1345       H  0.69491475  0.07637575  0.06182869     0.12840
C1346       C  0.76839827  0.08383041  0.06482370     0.62370
F1347       F  0.76130088  0.20594489  0.41412245    -0.22800
F1348       F  0.69286645  0.17738623  0.44113692    -0.20130
F1349       F  0.70617568  0.12272441  0.40446431    -0.19800
F1350       F  0.75534243  0.08040206  0.10966776    -0.19860
F1351       F  0.81029780  0.09400138  0.06307397    -0.20180
F1352       F  0.73880004  0.03683159  0.04005144    -0.22850
C1353       C  0.92184018  0.35107750  0.04863857    -0.05690
C1354       C  0.92570476  0.35813544  0.50170500     0.00240
C1355       C  0.90917116  0.31585591  0.46851199    -0.08330
C1356       C  0.88799513  0.26714202  0.48392893    -0.05710
C1357       C  0.88141344  0.25763712  0.53164714     0.00220
C1358       C  0.90516218  0.30359493  0.06477912    -0.08240
C1359       C  0.92257351  0.30887971  0.11450065     0.62130
H1360       H  0.93556065  0.38488906  0.07310440     0.12830
H1361       H  0.87642878  0.23564347  0.45791550     0.12840
C1362       C  0.91373422  0.32246330  0.41696890     0.62370
F1363       F  0.95753135  0.35868928  0.12986095    -0.22800
F1364       F  0.94072153  0.28182394  0.11618354    -0.20130
F1365       F  0.88949518  0.29482034  0.14594051    -0.19800
F1366       F  0.95884379  0.35113285  0.40708013    -0.19860
F1367       F  0.89498069  0.34719795  0.40516333    -0.20180
F1368       F  0.89185804  0.27615780  0.38971961    -0.22850
C1369       C  0.92288667  0.20024845  0.01856569    -0.05690
C1370       C  0.87549218  0.17474482  0.51350046     0.00240
C1371       C  0.85353106  0.12979259  0.48026261    -0.08330
C1372       C  0.87327423  0.10309662  0.47273404    -0.05710
C1373       C  0.91635290  0.12264083  0.48973635     0.00220
C1374       C  0.94353408  0.17426152  0.00834757    -0.08240
C1375       C  0.99327201  0.20068238  0.01801588     0.62130
H1376       H  0.94316187  0.23898830  0.03495219     0.12830
H1377       H  0.85523737  0.06633143  0.45223833     0.12840
C1378       C  0.81548121  0.11337396  0.44539715     0.62370
F1379       F  0.01527197  0.25220193  0.03169164    -0.22800
F1380       F  0.01136412  0.19486192  0.97793978    -0.20130
F1381       F  0.00039675  0.17889062  0.05241220    -0.19800
F1382       F  0.82174367  0.15486757  0.42764721    -0.19860
F1383       F  0.77452542  0.08619988  0.46466510    -0.20180
F1384       F  0.81375920  0.08176138  0.40819027    -0.22850
C1385       C  0.82080370  0.20241721  0.12046393    -0.05690
C1386       C  0.85204513  0.19557337  0.09686701     0.00240
C1387       C  0.87648677  0.18480491  0.12684716    -0.08330
C1388       C  0.87490369  0.19384551  0.17497259    -0.05710
C1389       C  0.83714965  0.18724779  0.19658234     0.00220
C1390       C  0.80796611  0.19066493  0.16672176    -0.08240
C1391       C  0.76257368  0.17972635  0.17917817     0.62130
H1392       H  0.80426987  0.21482959  0.10106870     0.12830
H1393       H  0.90189539  0.20022630  0.19665929     0.12840
C1394       C  0.90732848  0.16789276  0.11480044     0.62370
F1395       F  0.74131431  0.18342704  0.14214017    -0.22800
F1396       F  0.76676113  0.21299954  0.21554932    -0.20130
F1397       F  0.73416572  0.13056032  0.18969642    -0.19800
F1398       F  0.94939883  0.20886863  0.10515395    -0.19860
F1399       F  0.88873820  0.12849022  0.07985882    -0.20180
F1400       F  0.91408657  0.14843977  0.15187487    -0.22850
C1401       C  0.85280864  0.19878226  0.54180000    -0.02400
C1402       C  0.83649588  0.18246778  0.75094456    -0.02400
C1403       C  0.65240026  0.32264148  0.91692513    -0.02400
C1404       C  0.66112832  0.32335240  0.70633058    -0.02400
C1405       C  0.93028199  0.08722695  0.98498055     0.76540
Tb1406     Tb  0.55973127  0.01804591  0.97936383     1.80740
O1407       O  0.92200374  0.05847306  0.94798188    -0.51480
O1408       O  0.87452875  0.45946581  0.92945388    -0.58930
C1409       C  0.55109865  0.11452718  0.96788857     0.92360
O1410       O  0.63496996  0.07847346  0.45827081    -0.58450
Tb1411     Tb  0.94347372  0.00881127  0.97557078     1.78060
O1412       O  0.58744825  0.47159749  0.00014561    -0.58950
O1413       O  0.92798935  0.42888352  0.98265110    -0.77760
O1414       O  0.50868845  0.08673276  0.96475963    -0.77080
O1415       O  0.96568520  0.00811305  0.55395716    -0.62340
C1416       C  0.95058226  0.41126271  0.98980383     0.91950
O1417       O  0.53697378  0.01382655  0.90102455    -0.74290
C1418       C  0.58498863  0.95114042  0.95986186     0.75390
C1419       C  0.84798263  0.45057207  0.96196043     0.76370
O1420       O  0.94639274  0.07800877  0.51790295    -0.59540
O1421       O  0.86879948  0.46820279  0.50131656    -0.51480
O1422       O  0.53113889  0.01519272  0.55439071    -0.77550
O1423       O  0.96976179  0.00252379  0.89969430    -0.61550
C1424       C  0.00349481  0.00732763  0.87891694     0.90170
C1425       C  0.99788124  0.01061176  0.57537782     0.91390
C1426       C  0.65431650  0.08938294  0.49791203     0.75740
O1427       O  0.56909100  0.96282911  0.92915130    -0.50870
O1428       O  0.62628936  0.56594485  0.52846564    -0.52030
O1429       O  0.99351330  0.43755520  0.99090901    -0.64880
O1430       O  0.57464642  0.09882304  0.97748769    -0.66010
C1431       C  0.92512038  0.07734800  0.75636136     0.76540
Tb1432     Tb  0.55621521  0.00845846  0.72259403     1.80740
O1433       O  0.93061188  0.06460442  0.71561094    -0.51480
O1434       O  0.88610459  0.46080789  0.68123414    -0.58930
C1435       C  0.55470558  0.10981328  0.70220650     0.92360
O1436       O  0.63353763  0.04871865  0.71646814    -0.58450
Tb1437     Tb  0.95195753  0.01221026  0.73142708     1.78060
O1438       O  0.55226539  0.43254826  0.72142287    -0.58950
O1439       O  0.93288354  0.42986428  0.74129392    -0.77760
O1440       O  0.51828700  0.09359501  0.72284762    -0.77080
O1441       O  0.97301215  0.00725082  0.80633740    -0.62340
C1442       C  0.95078557  0.40563892  0.74202056     0.91950
O1443       O  0.52863928  0.00731261  0.64712666    -0.74290
C1444       C  0.58261786  0.44219298  0.69342165     0.75390
C1445       C  0.85864509  0.45399480  0.71209816     0.76370
O1446       O  0.93734344  0.06141675  0.78676427    -0.59540
O1447       O  0.87751858  0.47252942  0.75212071    -0.51480
O1448       O  0.53651551  0.01109067  0.80326600    -0.77550
O1449       O  0.96794368  0.00895444  0.65117137    -0.61550
C1450       C  0.99770497  0.00832871  0.62765776     0.90170
C1451       C  0.00445561  0.00808296  0.82622029     0.91390
C1452       C  0.64649673  0.07071512  0.75703600     0.75740
O1453       O  0.59781952  0.98368387  0.67708004    -0.50870
O1454       O  0.61463806  0.56458904  0.78110821    -0.52030
O1455       O  0.99234068  0.42676443  0.73476461    -0.64880
O1456       O  0.57006538  0.08296585  0.69494955    -0.66010
C1457       C  0.58923164  0.23930082  0.66492215    -0.05690
C1458       C  0.63557767  0.26843159  0.67632913     0.00240
C1459       C  0.65298975  0.23875554  0.66780795    -0.08330
C1460       C  0.62740693  0.18855196  0.68066034    -0.05710
C1461       C  0.58093541  0.16263624  0.68647187     0.00220
C1462       C  0.56103520  0.18697597  0.67217479    -0.08240
C1463       C  0.51093751  0.16059344  0.66794944     0.62130
H1464       H  0.57428519  0.25821847  0.65584679     0.12830
H1465       H  0.64269651  0.16804401  0.68060907     0.12840
C1466       C  0.68277832  0.24635058  0.62750556     0.62370
F1467       F  0.50025583  0.18694772  0.64314768    -0.22800
F1468       F  0.99544431  0.15899766  0.71205640    -0.20130
F1469       F  0.48991883  0.11215678  0.64496773    -0.19800
F1470       F  0.71824926  0.24549185  0.64153701    -0.19860
F1471       F  0.69927754  0.29091045  0.60859459    -0.20180
F1472       F  0.65785265  0.20715155  0.59224020    -0.22850
C1473       C  0.57674985  0.36441691  0.70538231    -0.05690
C1474       C  0.60028323  0.40983106  0.68554251     0.00240
C1475       C  0.64098149  0.42406960  0.66479064    -0.08330
C1476       C  0.65888029  0.39541528  0.67058046    -0.05710
C1477       C  0.63717047  0.35062797  0.69445656     0.00220
C1478       C  0.59328225  0.33494017  0.71093472    -0.08240
C1479       C  0.56050436  0.29091179  0.73855900     0.62130
H1480       H  0.54462716  0.35253655  0.71946977     0.12830
H1481       H  0.69195976  0.41218566  0.65918636     0.12840
C1482       C  0.66596524  0.96957972  0.63685015     0.62370
F1483       F  0.55853282  0.31185741  0.78135148    -0.22800
F1484       F  0.56925625  0.25666959  0.74670907    -0.20130
F1485       F  0.51868453  0.26335207  0.71534659    -0.19800
F1486       F  0.68193908  0.01386835  0.66555655    -0.19860
F1487       F  0.63719919  0.96424333  0.60223974    -0.20180
F1488       F  0.70227078  0.97405669  0.61560277    -0.22850
C1489       C  0.73668830  0.37940114  0.66115653    -0.05690
C1490       C  0.71371567  0.35114654  0.69900556     0.00240
C1491       C  0.74264836  0.35442264  0.73456632    -0.08330
C1492       C  0.78517936  0.39941794  0.74279375    -0.05710
C1493       C  0.80906658  0.42444603  0.70503758     0.00220
C1494       C  0.78432252  0.41583405  0.66335475    -0.08240
C1495       C  0.80432650  0.94860894  0.62374275     0.62130
H1496       H  0.71782650  0.37378815  0.62974752     0.12830
H1497       H  0.80338642  0.40604091  0.77516587     0.12840
C1498       C  0.74409955  0.30989827  0.74318680     0.62370
F1499       F  0.78340823  0.97269753  0.62067434    -0.22800
F1500       F  0.79630143  0.91829887  0.58260663    -0.20130
F1501       F  0.84991566  0.98613890  0.62978051    -0.19800
F1502       F  0.76975340  0.30517488  0.71015390    -0.19860
F1503       F  0.70288180  0.26463798  0.74179492    -0.20180
F1504       F  0.76436540  0.31884934  0.78639788    -0.22850
C1505       C  0.58528040  0.22725017  0.90493002    -0.05690
C1506       C  0.61770655  0.26943262  0.93596904     0.00240
C1507       C  0.61633817  0.25886227  0.48354873    -0.08330
C1508       C  0.59622916  0.20779208  0.49264684    -0.05710
C1509       C  0.57307856  0.16730188  0.95727900     0.00220
C1510       C  0.56556767  0.17699134  0.91317243    -0.08240
C1511       C  0.54152772  0.13525454  0.87275149     0.62130
H1512       H  0.57858769  0.23215415  0.87113686     0.12830
H1513       H  0.59785236  0.19920363  0.52763518     0.12840
C1514       C  0.63474858  0.29877816  0.52540369     0.62370
F1515       F  0.54198074  0.15360292  0.83116533    -0.22800
F1516       F  0.49700126  0.10030508  0.88190592    -0.20130
F1517       F  0.56340558  0.11185297  0.86633594    -0.19800
F1518       F  0.62925134  0.33652164  0.51848065    -0.19860
F1519       F  0.67961217  0.31942318  0.53454465    -0.20180
F1520       F  0.61174960  0.27730134  0.56468066    -0.22850
C1521       C  0.57276271  0.36689026  0.94970908    -0.05690
C1522       C  0.60183073  0.41940734  0.94936106     0.00240
C1523       C  0.64555673  0.44056522  0.93454723    -0.08330
C1524       C  0.66067400  0.40942383  0.92643386    -0.05710
C1525       C  0.63205938  0.35559255  0.92542012     0.00220
C1526       C  0.58483888  0.33517885  0.92899953    -0.08240
C1527       C  0.54861959  0.29295610  0.89448227     0.62130
H1528       H  0.53785440  0.35058847  0.95717675     0.12830
H1529       H  0.69592453  0.42887470  0.92201422     0.12840
C1530       C  0.67669441  0.99633152  0.92839267     0.62370
F1531       F  0.51916190  0.30388185  0.88030405    -0.22800
F1532       F  0.52340051  0.24779125  0.91397198    -0.20130
F1533       F  0.56768741  0.28829535  0.85479842    -0.19800
F1534       F  0.68404483  0.02396801  0.47068731    -0.19860
F1535       F  0.65755983  0.00885891  0.89652608    -0.20180
F1536       F  0.71754155  0.00888626  0.91246282    -0.22850
C1537       C  0.72151710  0.39350840  0.97332742    -0.05690
C1538       C  0.70122182  0.34882778  0.94199385     0.00240
C1539       C  0.73139964  0.33548674  0.92857178    -0.08330
C1540       C  0.77712088  0.37482914  0.92416951    -0.05710
C1541       C  0.79765974  0.41972824  0.95457464     0.00220
C1542       C  0.76885348  0.42889515  0.98044182    -0.08240
C1543       C  0.78439903  0.47951851  0.50655175     0.62130
H1544       H  0.70045252  0.40263049  0.99123878     0.12830
H1545       H  0.79866432  0.36497242  0.90811721     0.12840
C1546       C  0.72805629  0.29130103  0.94735576     0.62370
F1547       F  0.75724172  0.97173705  0.54335382    -0.22800
F1548       F  0.77934395  0.00679127  0.97661176    -0.20130
F1549       F  0.82835757  0.50776222  0.52396751    -0.19800
F1550       F  0.73842744  0.26789533  0.91270511    -0.19860
F1551       F  0.68668747  0.25629608  0.96342150    -0.20180
F1552       F  0.75896197  0.30886175  0.98459357    -0.22850
C1553       C  0.64242602  0.27818090  0.78192667    -0.05690
C1554       C  0.65860089  0.32320404  0.76152954     0.00240
C1555       C  0.68042138  0.36900531  0.79365305    -0.08330
C1556       C  0.68418814  0.36567403  0.84157650    -0.05710
C1557       C  0.66015987  0.31998844  0.86219524     0.00220
C1558       C  0.64614979  0.27637920  0.83030575    -0.08240
C1559       C  0.65625665  0.23898758  0.83998441     0.62130
H1560       H  0.62940802  0.24373168  0.75924298     0.12830
H1561       H  0.70731193  0.39958919  0.86335955     0.12840
C1562       C  0.69875713  0.42224727  0.78065037     0.62370
F1563       F  0.62865110  0.19332189  0.81232887    -0.22800
F1564       F  0.65379893  0.22809234  0.88471147    -0.20130
F1565       F  0.69994182  0.26178177  0.82943001    -0.19800
F1566       F  0.66346673  0.42524796  0.77064159    -0.19860
F1567       F  0.72640061  0.43544069  0.74373522    -0.20180
F1568       F  0.72415392  0.45908938  0.81720379    -0.22850
C1569       C  0.76888429  0.17189876  0.79945523    -0.05690
C1570       C  0.78777516  0.15112009  0.77226190     0.00240
C1571       C  0.76027934  0.09694122  0.77275472    -0.08330
C1572       C  0.71417841  0.07156325  0.76210484    -0.05710
C1573       C  0.69404964  0.09692671  0.77321247     0.00220
C1574       C  0.72148849  0.14662434  0.79654755    -0.08240
C1575       C  0.70243933  0.17509988  0.81241956     0.62130
H1576       H  0.79000174  0.20620781  0.82259489     0.12830
H1577       H  0.69313168  0.53058198  0.75350317     0.12840
C1578       C  0.76945747  0.07533077  0.81160010     0.62370
F1579       F  0.73616460  0.22194468  0.83446553    -0.22800
F1580       F  0.66877438  0.14879446  0.84299468    -0.20130
F1581       F  0.68525398  0.18149803  0.77357210    -0.19800
F1582       F  0.73048144  0.04204732  0.83352818    -0.19860
F1583       F  0.79823246  0.11438271  0.84476461    -0.20180
F1584       F  0.78799696  0.55002269  0.79526076    -0.22850
C1585       C  0.93924586  0.32078904  0.74467908    -0.05690
C1586       C  0.92242798  0.35028550  0.75235721     0.00240
C1587       C  0.88080961  0.32670830  0.77394089    -0.08330
C1588       C  0.85352825  0.27316681  0.77408855    -0.05710
C1589       C  0.87022206  0.24246615  0.76957474     0.00220
C1590       C  0.91804897  0.27273406  0.76244107    -0.08240
C1591       C  0.95018657  0.26642334  0.78802170     0.62130
H1592       H  0.97262793  0.33860056  0.73159169     0.12830
H1593       H  0.81872399  0.25745277  0.77521684     0.12840
C1594       C  0.86467247  0.35683834  0.79738883     0.62370
F1595       F  0.99283326  0.31131471  0.79236530    -0.22800
F1596       F  0.95269403  0.22893659  0.76493357    -0.20130
F1597       F  0.93770435  0.25634142  0.83303049    -0.19800
F1598       F  0.84960915  0.37195447  0.76387644    -0.19860
F1599       F  0.89931005  0.39906776  0.82472757    -0.20180
F1600       F  0.83019056  0.32804785  0.82651630    -0.22850
C1601       C  0.86838983  0.08572900  0.72740438    -0.05690
C1602       C  0.89961064  0.10040481  0.76351300     0.00240
C1603       C  0.90114851  0.13130787  0.80283193    -0.08330
C1604       C  0.87731660  0.15390652  0.79965165    -0.05710
C1605       C  0.85392098  0.14809210  0.75805082     0.00220
C1606       C  0.84311677  0.10521604  0.72540197    -0.08240
C1607       C  0.80411097  0.07387415  0.68936113     0.62130
H1608       H  0.86193926  0.05620017  0.70035099     0.12830
H1609       H  0.87671043  0.17616324  0.82948225     0.12840
C1610       C  0.92805646  0.14103198  0.84684275     0.62370
F1611       F  0.82046876  0.07464452  0.64579734    -0.22800
F1612       F  0.77671859  0.08951273  0.68776433    -0.20130
F1613       F  0.77754759  0.02389297  0.69960115    -0.19800
F1614       F  0.97279719  0.16453708  0.83700745    -0.19860
F1615       F  0.91187196  0.09528517  0.86408862    -0.20180
F1616       F  0.92516028  0.17203007  0.88101745    -0.22850
C1617       C  0.78395556  0.18663316  0.99468542    -0.05690
C1618       C  0.80023140  0.16809782  0.52552844     0.00240
C1619       C  0.76464178  0.12263788  0.54518087    -0.08330
C1620       C  0.71982965  0.10730770  0.54244405    -0.05710
C1621       C  0.70456408  0.12135987  0.50765788     0.00220
C1622       C  0.73752304  0.15895740  0.98041847    -0.08240
C1623       C  0.72439130  0.16675501  0.93457488     0.62130
H1624       H  0.80690314  0.22003471  0.97799999     0.12830
H1625       H  0.69491475  0.07637559  0.56182872     0.12840
C1626       C  0.76839824  0.08383018  0.56482358     0.62370
F1627       F  0.76130096  0.20594505  0.91412243    -0.22800
F1628       F  0.69286652  0.17738641  0.94113685    -0.20130
F1629       F  0.70617576  0.12272457  0.90446431    -0.19800
F1630       F  0.75534254  0.08040186  0.60966769    -0.19860
F1631       F  0.81029774  0.09400106  0.56307370    -0.20180
F1632       F  0.73879991  0.03683136  0.54005136    -0.22850
C1633       C  0.92184021  0.35107730  0.54863858    -0.05690
C1634       C  0.92570484  0.35813563  0.00170498     0.00240
C1635       C  0.90917131  0.31585608  0.96851200    -0.08330
C1636       C  0.88799523  0.26714220  0.98392897    -0.05710
C1637       C  0.88141347  0.25763733  0.03164719     0.00220
C1638       C  0.90516221  0.30359470  0.56477909    -0.08240
C1639       C  0.92257360  0.30887942  0.61450058     0.62130
H1640       H  0.93556075  0.38488885  0.57310444     0.12830
H1641       H  0.87642890  0.23564364  0.95791556     0.12840
C1642       C  0.91373452  0.32246347  0.91696891     0.62370
F1643       F  0.95753151  0.35868896  0.62986086    -0.22800
F1644       F  0.94072154  0.28182355  0.61618336    -0.20130
F1645       F  0.88949533  0.29482009  0.64594049    -0.19800
F1646       F  0.95884413  0.35113304  0.90708029    -0.19860
F1647       F  0.89498101  0.34719809  0.90516319    -0.20180
F1648       F  0.89185844  0.27615797  0.88971964    -0.22850
C1649       C  0.92288673  0.20024840  0.51856571    -0.05690
C1650       C  0.87549212  0.17474493  0.01350055     0.00240
C1651       C  0.85353089  0.12979259  0.98026284    -0.08330
C1652       C  0.87327394  0.10309649  0.97273438    -0.05710
C1653       C  0.91635267  0.12264071  0.98973655     0.00220
C1654       C  0.94353423  0.17426158  0.50834755    -0.08240
C1655       C  0.99327215  0.20068246  0.51801605     0.62130
H1656       H  0.94316187  0.23898820  0.53495233     0.12830
H1657       H  0.85523698  0.06633123  0.95223879     0.12840
C1658       C  0.81548114  0.11337406  0.94539727     0.62370
F1659       F  0.01527201  0.25220194  0.53169211    -0.22800
F1660       F  0.01136447  0.19486234  0.47793998    -0.20130
F1661       F  0.00039678  0.17889049  0.55241224    -0.19800
F1662       F  0.82174373  0.15486772  0.92764730    -0.19860
F1663       F  0.77452531  0.08620004  0.96466512    -0.20180
F1664       F  0.81375916  0.08176147  0.90819042    -0.22850
C1665       C  0.82080372  0.20241701  0.62046386    -0.05690
C1666       C  0.85204510  0.19557311  0.59686693     0.00240
C1667       C  0.87648667  0.18480454  0.62684706    -0.08330
C1668       C  0.87490359  0.19384511  0.67497249    -0.05710
C1669       C  0.83714960  0.18724749  0.69658225     0.00220
C1670       C  0.80796609  0.19066470  0.66672168    -0.08240
C1671       C  0.76257366  0.17972613  0.67917807     0.62130
H1672       H  0.80426992  0.21482944  0.60106864     0.12830
H1673       H  0.90189528  0.20022584  0.69665917     0.12840
C1674       C  0.90732834  0.16789232  0.61480031     0.62370
F1675       F  0.74131427  0.18342673  0.64214003    -0.22800
F1676       F  0.76676113  0.21299940  0.71554915    -0.20130
F1677       F  0.73416571  0.13056014  0.68969642    -0.19800
F1678       F  0.94939874  0.20886819  0.60515397    -0.19860
F1679       F  0.88873811  0.12848989  0.57985859    -0.20180
F1680       F  0.91408631  0.14843918  0.65187470    -0.22850
C1681       C  0.85281251  0.69878008  0.04179670    -0.02400
C1682       C  0.83649627  0.68246604  0.25094089    -0.02400
C1683       C  0.65239502  0.82263765  0.41692579    -0.02400
C1684       C  0.66112337  0.82334927  0.20633144    -0.02400
C1685       C  0.93028973  0.58722839  0.48497491     0.76540
Tb1686     Tb  0.55973369  0.51804540  0.47936794     1.80740
O1687       O  0.92200860  0.55847247  0.44797693    -0.51480
O1688       O  0.87452435  0.95946629  0.42945964    -0.58930
C1689       C  0.55109945  0.61452392  0.46788861     0.92360
O1690       O  0.63497171  0.57847535  0.95827362    -0.58450
Tb1691     Tb  0.94347902  0.50881018  0.47556414     1.78060
O1692       O  0.58744098  0.97159335  0.50014366    -0.58950
O1693       O  0.92798152  0.92888428  0.48266285    -0.77760
O1694       O  0.50868938  0.58672747  0.46475554    -0.77080
O1695       O  0.96569047  0.50811317  0.05395059    -0.62340
C1696       C  0.95057364  0.91126180  0.48981243     0.91950
O1697       O  0.53697643  0.51382543  0.40102799    -0.74290
C1698       C  0.58499242  0.45114153  0.45986388     0.75390
C1699       C  0.84797755  0.95057305  0.46196543     0.76370
O1700       O  0.94640262  0.57801126  0.01789603    -0.59540
O1701       O  0.86879353  0.96820460  0.00132176    -0.51480
O1702       O  0.53113998  0.51519140  0.05439477    -0.77550
O1703       O  0.96976621  0.50252314  0.39968779    -0.61550
C1704       C  0.00350079  0.50733041  0.37891130     0.90170
C1705       C  0.99788619  0.51061174  0.07537177     0.91390
C1706       C  0.65431966  0.58938324  0.99791378     0.75740
O1707       O  0.56909021  0.46282642  0.42915467    -0.50870
O1708       O  0.62628526  0.06594619  0.02846363    -0.52030
O1709       O  0.99350441  0.93755249  0.49091457    -0.64880
O1710       O  0.57464773  0.59882253  0.47749496    -0.66010
C1711       C  0.92512499  0.57735024  0.25635497     0.76540
Tb1712     Tb  0.55621518  0.50845629  0.22259636     1.80740
O1713       O  0.93061467  0.56460466  0.21560445    -0.51480
O1714       O  0.88609996  0.96080773  0.18123861    -0.58930
C1715       C  0.55470453  0.60981122  0.20220967     0.92360
O1716       O  0.63353756  0.54872075  0.21646623    -0.58450
Tb1717     Tb  0.95196283  0.51221264  0.23142164     1.78060
O1718       O  0.55225769  0.93254494  0.22141443    -0.58950
O1719       O  0.93287774  0.92986147  0.24129578    -0.77760
O1720       O  0.51828525  0.59359259  0.22284949    -0.77080
O1721       O  0.97301775  0.50725314  0.30633190    -0.62340
C1722       C  0.95078017  0.90563658  0.24202206     0.91950
O1723       O  0.52863889  0.50730964  0.14712982    -0.74290
C1724       C  0.58261447  0.94219181  0.19341854     0.75390
C1725       C  0.85864018  0.95399431  0.21210233     0.76370
O1726       O  0.93735022  0.56142119  0.28675791    -0.59540
O1727       O  0.87751316  0.97252758  0.25212521    -0.51480
O1728       O  0.53651616  0.51108696  0.30326855    -0.77550
O1729       O  0.96794910  0.50895670  0.15116555    -0.61550
C1730       C  0.99770931  0.50832876  0.12765176     0.90170
C1731       C  0.00446175  0.50808631  0.32621487     0.91390
C1732       C  0.64649721  0.57071462  0.25703490     0.75740
O1733       O  0.59781751  0.48368170  0.17707823    -0.50870
O1734       O  0.61463729  0.06459280  0.28110666    -0.52030
O1735       O  0.99233566  0.92676278  0.23476827    -0.64880
O1736       O  0.57006522  0.58296457  0.19495442    -0.66010
C1737       C  0.58922907  0.73929681  0.16492169    -0.05690
C1738       C  0.63557493  0.76842882  0.17632967     0.00240
C1739       C  0.65298824  0.73875367  0.16781114    -0.08330
C1740       C  0.62740581  0.68855037  0.18066418    -0.05710
C1741       C  0.58093403  0.66263371  0.18647418     0.00220
C1742       C  0.56103330  0.68697198  0.17217476    -0.08240
C1743       C  0.51093554  0.66058787  0.16794700     0.62130
H1744       H  0.57428203  0.75821367  0.15584570     0.12830
H1745       H  0.64269612  0.66804333  0.18061481     0.12840
C1746       C  0.68277965  0.74634950  0.12751135     0.62370
F1747       F  0.50025439  0.68694063  0.14314228    -0.22800
F1748       F  0.99544482  0.65899355  0.21203541    -0.20130
F1749       F  0.48991840  0.61215080  0.14496671    -0.19800
F1750       F  0.71825117  0.74549374  0.14154710    -0.19860
F1751       F  0.69927803  0.79090817  0.10859838    -0.20180
F1752       F  0.65785696  0.70714917  0.09224621    -0.22850
C1753       C  0.57674469  0.86441398  0.20538001    -0.05690
C1754       C  0.60027895  0.90982863  0.18554060     0.00240
C1755       C  0.64097765  0.92406690  0.16478993    -0.08330
C1756       C  0.65887570  0.89541191  0.17058011    -0.05710
C1757       C  0.63716517  0.85062425  0.19445576     0.00220
C1758       C  0.59327648  0.83493640  0.21093249    -0.08240
C1759       C  0.56049828  0.79090782  0.23855637     0.62130
H1760       H  0.54462215  0.85253409  0.21946749     0.12830
H1761       H  0.69195545  0.91218243  0.15918696     0.12840
C1762       C  0.66596743  0.46958170  0.13684949     0.62370
F1763       F  0.55852735  0.81185319  0.28134922    -0.22800
F1764       F  0.56924991  0.75666527  0.24670588    -0.20130
F1765       F  0.51867830  0.76334866  0.21534416    -0.19800
F1766       F  0.68193992  0.51387094  0.16555431    -0.19860
F1767       F  0.63720017  0.46424227  0.10223877    -0.20180
F1768       F  0.70227355  0.47405976  0.11560236    -0.22850
C1769       C  0.73668407  0.87939898  0.16115868    -0.05690
C1770       C  0.71371120  0.85114523  0.19900812     0.00240
C1771       C  0.74264387  0.85442358  0.23457031    -0.08330
C1772       C  0.78517431  0.89941953  0.24279765    -0.05710
C1773       C  0.80906181  0.92444636  0.20504118     0.00220
C1774       C  0.78431816  0.91583295  0.16335755    -0.08240
C1775       C  0.80433094  0.44861092  0.12374074     0.62130
H1776       H  0.71782247  0.87378464  0.12974897     0.12830
H1777       H  0.80338126  0.90604336  0.27517017     0.12840
C1778       C  0.74409603  0.80990074  0.24319426     0.62370
F1779       F  0.78341307  0.47270010  0.12067355    -0.22800
F1780       F  0.79630519  0.41830128  0.08260411    -0.20130
F1781       F  0.84992024  0.48614036  0.12977817    -0.19800
F1782       F  0.76975279  0.80517827  0.21016469    -0.19860
F1783       F  0.70287890  0.76463946  0.24180019    -0.20180
F1784       F  0.76435943  0.81885377  0.28640742    -0.22850
C1785       C  0.58527489  0.72724653  0.40493162    -0.05690
C1786       C  0.61770173  0.76942899  0.43597006     0.00240
C1787       C  0.61633527  0.75885834  0.98354903    -0.08330
C1788       C  0.59622934  0.70778855  0.99264611    -0.05710
C1789       C  0.57307833  0.66729842  0.45727860     0.00220
C1790       C  0.56556406  0.67698766  0.41317319    -0.08240
C1791       C  0.54152353  0.63525128  0.37275195     0.62130
H1792       H  0.57858099  0.73215095  0.37113911     0.12830
H1793       H  0.59785472  0.69920039  0.02763399     0.12840
C1794       C  0.63474345  0.79877318  0.02540456     0.62370
F1795       F  0.54197515  0.65360023  0.33116660    -0.22800
F1796       F  0.49699739  0.60030095  0.38190696    -0.20130
F1797       F  0.56340201  0.61185060  0.36633437    -0.19800
F1798       F  0.62924589  0.83651633  0.01848107    -0.19860
F1799       F  0.67960685  0.81941872  0.03454782    -0.20180
F1800       F  0.61174244  0.77729475  0.06468014    -0.22850
C1801       C  0.57275834  0.86688822  0.44970969    -0.05690
C1802       C  0.60182654  0.91940513  0.44936027     0.00240
C1803       C  0.64555248  0.94056232  0.43454675    -0.08330
C1804       C  0.66066901  0.90942019  0.42643326    -0.05710
C1805       C  0.63205407  0.85558889  0.42542021     0.00220
C1806       C  0.58483371  0.83517577  0.42900063    -0.08240
C1807       C  0.54861333  0.79295221  0.39448453     0.62130
H1808       H  0.53785029  0.85058712  0.45717810     0.12830
H1809       H  0.69591953  0.92887057  0.42201343     0.12840
C1810       C  0.67669770  0.49633379  0.42839148     0.62370
F1811       F  0.51915436  0.80387687  0.38030835    -0.22800
F1812       F  0.52339547  0.74778760  0.41397474    -0.20130
F1813       F  0.56767972  0.78829143  0.35479932    -0.19800
F1814       F  0.68404951  0.52397133  0.97068607    -0.19860
F1815       F  0.65756129  0.50885979  0.39652570    -0.20180
F1816       F  0.71754433  0.50888867  0.41245976    -0.22850
C1817       C  0.72151056  0.89350474  0.47332925    -0.05690
C1818       C  0.70121679  0.84882488  0.44199478     0.00240
C1819       C  0.73139628  0.83548623  0.42857240    -0.08330
C1820       C  0.77711749  0.87482990  0.42417234    -0.05710
C1821       C  0.79765460  0.91972810  0.45457845     0.00220
C1822       C  0.76884669  0.92889274  0.48044512    -0.08240
C1823       C  0.78438980  0.97951495  0.00655604     0.62130
H1824       H  0.70044492  0.90262555  0.49123996     0.12830
H1825       H  0.79866205  0.86497472  0.40812026     0.12840
C1826       C  0.72805240  0.79129790  0.44735092     0.62370
F1827       F  0.75725259  0.47174221  0.04335124    -0.22800
F1828       F  0.77935258  0.50679438  0.47660747    -0.20130
F1829       F  0.82834770  0.00775919  0.02397383    -0.19800
F1830       F  0.73841962  0.76789214  0.41269608    -0.19860
F1831       F  0.68668470  0.75629403  0.46341919    -0.20180
F1832       F  0.75896047  0.80885507  0.48458570    -0.22850
C1833       C  0.64241905  0.77817627  0.28192726    -0.05690
C1834       C  0.65859420  0.82319979  0.26153033     0.00240
C1835       C  0.68041403  0.86900078  0.29365407    -0.08330
C1836       C  0.68418255  0.86566941  0.34157703    -0.05710
C1837       C  0.66015441  0.81998384  0.36219587     0.00220
C1838       C  0.64614325  0.77637412  0.33030626    -0.08240
C1839       C  0.65624946  0.73898140  0.33998435     0.62130
H1840       H  0.62940111  0.74372727  0.25924336     0.12830
H1841       H  0.70730755  0.89958471  0.36335971     0.12840
C1842       C  0.69874764  0.92224245  0.28065198     0.62370
F1843       F  0.62864511  0.69331651  0.31232724    -0.22800
F1844       F  0.65379047  0.72808451  0.38471097    -0.20130
F1845       F  0.69993480  0.76177508  0.32943160    -0.19800
F1846       F  0.66345588  0.92524032  0.27064195    -0.19860
F1847       F  0.72639246  0.93543822  0.24373777    -0.20180
F1848       F  0.72414204  0.95908471  0.31720614    -0.22850
C1849       C  0.76888496  0.67189673  0.29945227    -0.05690
C1850       C  0.78777526  0.65111820  0.27225743     0.00240
C1851       C  0.76027961  0.59693962  0.27275079    -0.08330
C1852       C  0.71417851  0.57156190  0.26210173    -0.05710
C1853       C  0.69405029  0.59692603  0.27320960     0.00220
C1854       C  0.72148953  0.64662383  0.29654405    -0.08240
C1855       C  0.70244128  0.67510071  0.31241574     0.62130
H1856       H  0.79000247  0.70620410  0.32259404     0.12830
H1857       H  0.69313208  0.03058361  0.25350557     0.12840
C1858       C  0.76945863  0.57533025  0.31159650     0.62370
F1859       F  0.73616798  0.72194724  0.33445789    -0.22800
F1860       F  0.66877864  0.64879800  0.34299381    -0.20130
F1861       F  0.68525283  0.68149588  0.27356887    -0.19800
F1862       F  0.73048268  0.54204550  0.33352405    -0.19860
F1863       F  0.79823275  0.61438270  0.34476123    -0.20180
F1864       F  0.78799412  0.05002142  0.29526361    -0.22850
C1865       C  0.93924072  0.82078666  0.24467363    -0.05690
C1866       C  0.92242280  0.85028275  0.25235574     0.00240
C1867       C  0.88080495  0.82670458  0.27394035    -0.08330
C1868       C  0.85352493  0.77316319  0.27408709    -0.05710
C1869       C  0.87022032  0.74246400  0.26957206     0.00220
C1870       C  0.91804660  0.77273304  0.26243700    -0.08240
C1871       C  0.95018648  0.76643021  0.28802345     0.62130
H1872       H  0.97262223  0.83859857  0.23158479     0.12830
H1873       H  0.81872060  0.75744857  0.27521523     0.12840
C1874       C  0.86466680  0.85683313  0.29738980     0.62370
F1875       F  0.99282957  0.81132742  0.29237238    -0.22800
F1876       F  0.95270342  0.72894958  0.26493718    -0.20130
F1877       F  0.93769992  0.75634384  0.33303039    -0.19800
F1878       F  0.84960352  0.87195080  0.26387880    -0.19860
F1879       F  0.89930378  0.89906166  0.32472989    -0.20180
F1880       F  0.83018443  0.82804068  0.32651614    -0.22850
C1881       C  0.86839178  0.58572851  0.22740035    -0.05690
C1882       C  0.89961463  0.60040646  0.26350735     0.00240
C1883       C  0.90115323  0.63131021  0.30282615    -0.08330
C1884       C  0.87732009  0.65390754  0.29964694    -0.05710
C1885       C  0.85392217  0.64809108  0.25804737     0.00220
C1886       C  0.84311793  0.60521477  0.22539876    -0.08240
C1887       C  0.80411214  0.57387284  0.18935800     0.62130
H1888       H  0.86194073  0.55619916  0.20034734     0.12830
H1889       H  0.87671301  0.67616287  0.32947807     0.12840
C1890       C  0.92806277  0.64103593  0.34683607     0.62370
F1891       F  0.82047017  0.57464332  0.14579430    -0.22800
F1892       F  0.77671973  0.58951143  0.18776095    -0.20130
F1893       F  0.77754880  0.52389173  0.19959813    -0.19800
F1894       F  0.97280317  0.66454242  0.33699899    -0.19860
F1895       F  0.91188037  0.59528985  0.36408235    -0.20180
F1896       F  0.92516639  0.67203360  0.38101108    -0.22850
C1897       C  0.78395910  0.68663074  0.49468216    -0.05690
C1898       C  0.80023531  0.66809534  0.02552463     0.00240
C1899       C  0.76464598  0.62263551  0.04517706    -0.08330
C1900       C  0.71983403  0.60730621  0.04244222    -0.05710
C1901       C  0.70456769  0.62135956  0.00765780     0.00220
C1902       C  0.73752606  0.65895684  0.48041776    -0.08240
C1903       C  0.72439278  0.66675695  0.43457638     0.62130
H1904       H  0.80690668  0.72003139  0.47799561     0.12830
H1905       H  0.69491956  0.57637399  0.06182704     0.12840
C1906       C  0.76840270  0.58382732  0.06481805     0.62370
F1907       F  0.76130142  0.70594838  0.41412397    -0.22800
F1908       F  0.69286822  0.67738816  0.44114237    -0.20130
F1909       F  0.70617626  0.62272771  0.40446386    -0.19800
F1910       F  0.75534763  0.58039812  0.10966238    -0.19860
F1911       F  0.81030221  0.59399824  0.06306710    -0.20180
F1912       F  0.73880397  0.53682905  0.04004519    -0.22850
C1913       C  0.92182890  0.85107205  0.04864329    -0.05690
C1914       C  0.92569629  0.85813389  0.50171047     0.00240
C1915       C  0.90917097  0.81585793  0.46851505    -0.08330
C1916       C  0.88799887  0.76714307  0.48392849    -0.05710
C1917       C  0.88141560  0.75763487  0.53164561     0.00220
C1918       C  0.90515916  0.80359019  0.06477995    -0.08240
C1919       C  0.92258035  0.80887566  0.11449660     0.62130
H1920       H  0.93554484  0.88488087  0.07311182     0.12830
H1921       H  0.87643720  0.73564684  0.45791354     0.12840
C1922       C  0.91373855  0.82247023  0.41697309     0.62370
F1923       F  0.95754060  0.85868559  0.12985256    -0.22800
F1924       F  0.94072909  0.78181980  0.11617033    -0.20130
F1925       F  0.88950825  0.79481645  0.14594431    -0.19800
F1926       F  0.95884929  0.85114306  0.40708901    -0.19860
F1927       F  0.89498424  0.84720388  0.40516694    -0.20180
F1928       F  0.89186604  0.77616688  0.38972092    -0.22850
C1929       C  0.92289202  0.70024851  0.01856333    -0.05690
C1930       C  0.87549751  0.67474430  0.51349716     0.00240
C1931       C  0.85353767  0.62979322  0.48025819    -0.08330
C1932       C  0.87328147  0.60309794  0.47272915    -0.05710
C1933       C  0.91636018  0.62264228  0.48973182     0.00220
C1934       C  0.94354069  0.67426308  0.00834395    -0.08240
C1935       C  0.99327973  0.70068718  0.01800772     0.62130
H1936       H  0.94316650  0.73898833  0.03494972     0.12830
H1937       H  0.85524509  0.56633334  0.45223244     0.12840
C1938       C  0.81548881  0.61337593  0.44539202     0.62370
F1939       F  0.01527659  0.75220448  0.03169295    -0.22800
F1940       F  0.01137106  0.69487755  0.97792617    -0.20130
F1941       F  0.00040992  0.67889083  0.05239489    -0.19800
F1942       F  0.82175211  0.65487061  0.42764344    -0.19860
F1943       F  0.77453250  0.58620120  0.46465899    -0.20180
F1944       F  0.81376775  0.58176474  0.40818432    -0.22850
C1945       C  0.82080795  0.70241654  0.12045978    -0.05690
C1946       C  0.85204858  0.69557087  0.09686350     0.00240
C1947       C  0.87649026  0.68480285  0.12684418    -0.08330
C1948       C  0.87490637  0.69384345  0.17496963    -0.05710
C1949       C  0.83715184  0.68724623  0.19657851     0.00220
C1950       C  0.80796916  0.69066389  0.16671719    -0.08240
C1951       C  0.76257656  0.67972572  0.17917249     0.62130
H1952       H  0.80427492  0.71482951  0.10106402     0.12830
H1953       H  0.90189783  0.70022417  0.19665706     0.12840
C1954       C  0.90733213  0.66789047  0.11479773     0.62370
F1955       F  0.74131780  0.68342595  0.14213346    -0.22800
F1956       F  0.76676377  0.71299965  0.21554269    -0.20130
F1957       F  0.73416814  0.63056005  0.18969181    -0.19800
F1958       F  0.94940274  0.70886571  0.10515123    -0.19860
F1959       F  0.88874225  0.62848816  0.07985576    -0.20180
F1960       F  0.91409020  0.64843778  0.15187245    -0.22850
C1961       C  0.85281248  0.69878001  0.54179660    -0.02400
C1962       C  0.83649617  0.68246592  0.75094076    -0.02400
C1963       C  0.65239459  0.82263750  0.91692581    -0.02400
C1964       C  0.66112341  0.82334918  0.70633145    -0.02400
C1965       C  0.93028980  0.58722852  0.98497490     0.76540
Tb1966     Tb  0.55973364  0.51804555  0.97936800     1.80740
O1967       O  0.92200853  0.55847250  0.94797696    -0.51480
O1968       O  0.87452394  0.95946602  0.92945959    -0.58930
C1969       C  0.55109904  0.61452372  0.96788830     0.92360
O1970       O  0.63497174  0.57847504  0.45827347    -0.58450
Tb1971     Tb  0.94347908  0.50881031  0.97556408     1.78060
O1972       O  0.58744092  0.97159358  0.00014377    -0.58950
O1973       O  0.92798130  0.92888408  0.98266248    -0.77760
O1974       O  0.50868898  0.58672707  0.96475469    -0.77080
O1975       O  0.96569039  0.50811294  0.55395060    -0.62340
C1976       C  0.95057350  0.91126179  0.98981243     0.91950
O1977       O  0.53697635  0.51382555  0.90102803    -0.74290
C1978       C  0.58499244  0.45114174  0.95986387     0.75390
C1979       C  0.84797716  0.95057279  0.96196540     0.76370
O1980       O  0.94640239  0.57801101  0.51789610    -0.59540
O1981       O  0.86879385  0.96820484  0.50132182    -0.51480
O1982       O  0.53114009  0.51519135  0.55439475    -0.77550
O1983       O  0.96976622  0.50252315  0.89968774    -0.61550
C1984       C  0.00350084  0.50733050  0.87891128     0.90170
C1985       C  0.99788615  0.51061157  0.57537174     0.91390
C1986       C  0.65431968  0.58938311  0.49791367     0.75740
O1987       O  0.56909038  0.46282679  0.92915465    -0.50870
O1988       O  0.62628522  0.06594602  0.52846364    -0.52030
O1989       O  0.99350428  0.93755263  0.99091488    -0.64880
O1990       O  0.57464736  0.59882261  0.97749547    -0.66010
C1991       C  0.92512485  0.57735004  0.75635487     0.76540
Tb1992     Tb  0.55621517  0.50845620  0.72259641     1.80740
O1993       O  0.93061454  0.56460444  0.71560436    -0.51480
O1994       O  0.88610007  0.96080813  0.68123828    -0.58930
C1995       C  0.55470468  0.60981116  0.70220971     0.92360
O1996       O  0.63353752  0.54872071  0.71646624    -0.58450
Tb1997     Tb  0.95196275  0.51221247  0.73142160     1.78060
O1998       O  0.55225763  0.93254471  0.72141443    -0.58950
O1999       O  0.93287761  0.92986136  0.74129555    -0.77760
O2000       O  0.51828544  0.59359261  0.72284960    -0.77080
O2001       O  0.97301775  0.50725308  0.80633186    -0.62340
C2002       C  0.95078006  0.90563653  0.74202200     0.91950
O2003       O  0.52863893  0.50730952  0.64712983    -0.74290
C2004       C  0.58261437  0.94219154  0.69341849     0.75390
C2005       C  0.85864030  0.95399465  0.71210204     0.76370
O2006       O  0.93735010  0.56142101  0.78675782    -0.59540
O2007       O  0.87751329  0.97252766  0.75212493    -0.51480
O2008       O  0.53651609  0.51108691  0.80326858    -0.77550
O2009       O  0.96794907  0.50895653  0.65116553    -0.61550
C2010       C  0.99770929  0.50832860  0.62765173     0.90170
C2011       C  0.00446177  0.50808628  0.82621484     0.91390
C2012       C  0.64649719  0.57071467  0.75703487     0.75740
O2013       O  0.59781731  0.48368143  0.67707814    -0.50870
O2014       O  0.61463725  0.06459253  0.78110668    -0.52030
O2015       O  0.99233560  0.92676277  0.73476843    -0.64880
O2016       O  0.57006527  0.58296443  0.69495437    -0.66010
C2017       C  0.58922937  0.73929668  0.66492149    -0.05690
C2018       C  0.63557519  0.76842874  0.67632971     0.00240
C2019       C  0.65298859  0.73875364  0.66781155    -0.08330
C2020       C  0.62740608  0.68855032  0.68066452    -0.05710
C2021       C  0.58093426  0.66263365  0.68647425     0.00220
C2022       C  0.56103357  0.68697187  0.67217462    -0.08240
C2023       C  0.51093579  0.66058776  0.66794683     0.62130
H2024       H  0.57428234  0.75821351  0.65584533     0.12830
H2025       H  0.64269642  0.66804333  0.68061541     0.12840
C2026       C  0.68278107  0.74635011  0.62751265     0.62370
F2027       F  0.50025463  0.68694053  0.64314215    -0.22800
F2028       F  0.99544472  0.65899333  0.71203533    -0.20130
F2029       F  0.48991866  0.61215070  0.64496651    -0.19800
F2030       F  0.71825394  0.74549763  0.64155014    -0.19860
F2031       F  0.69927745  0.79090753  0.60859812    -0.20180
F2032       F  0.65786008  0.70714843  0.59224810    -0.22850
C2033       C  0.57674451  0.86441359  0.70537975    -0.05690
C2034       C  0.60027881  0.90982831  0.68554046     0.00240
C2035       C  0.64097753  0.92406661  0.66478979    -0.08330
C2036       C  0.65887558  0.89541161  0.67057993    -0.05710
C2037       C  0.63716508  0.85062398  0.69445562     0.00220
C2038       C  0.59327633  0.83493602  0.71093224    -0.08240
C2039       C  0.56049807  0.79090734  0.73855598     0.62130
H2040       H  0.54462193  0.85253364  0.71946717     0.12830
H2041       H  0.69195530  0.91218208  0.65918671     0.12840
C2042       C  0.66596736  0.46958155  0.63684951     0.62370
F2043       F  0.55852691  0.81185254  0.78134881    -0.22800
F2044       F  0.56924982  0.75666490  0.74670556    -0.20130
F2045       F  0.51867817  0.76334810  0.71534363    -0.19800
F2046       F  0.68193981  0.51387077  0.66555435    -0.19860
F2047       F  0.63720010  0.46424211  0.60223879    -0.20180
F2048       F  0.70227350  0.47405965  0.61560239    -0.22850
C2049       C  0.73668405  0.87939879  0.66115853    -0.05690
C2050       C  0.71371131  0.85114545  0.69900823     0.00240
C2051       C  0.74264418  0.85442463  0.73457070    -0.08330
C2052       C  0.78517453  0.89942073  0.74279772    -0.05710
C2053       C  0.80906192  0.92444690  0.70504096     0.00220
C2054       C  0.78431814  0.91583293  0.66335726    -0.08240
C2055       C  0.80433087  0.44861069  0.62374068     0.62130
H2056       H  0.71782234  0.87378414  0.62974879     0.12830
H2057       H  0.80338158  0.90604500  0.77517030     0.12840
C2058       C  0.74409653  0.80990231  0.74319618     0.62370
F2059       F  0.78341302  0.47269989  0.62067348    -0.22800
F2060       F  0.79630511  0.41830103  0.58260407    -0.20130
F2061       F  0.84992017  0.48614012  0.62977810    -0.19800
F2062       F  0.76975477  0.80518029  0.71016829    -0.19860
F2063       F  0.70287962  0.76464058  0.74180090    -0.20180
F2064       F  0.76435862  0.81885603  0.78641033    -0.22850
C2065       C  0.58527428  0.72724644  0.90493152    -0.05690
C2066       C  0.61770118  0.76942883  0.93596999     0.00240
C2067       C  0.61633579  0.75885859  0.48354915    -0.08330
C2068       C  0.59622982  0.70778881  0.49264635    -0.05710
C2069       C  0.57307786  0.66729821  0.95727831     0.00220
C2070       C  0.56556346  0.67698753  0.91317298    -0.08240
C2071       C  0.54152294  0.63525122  0.87275167     0.62130
H2072       H  0.57858044  0.73215095  0.87113901     0.12830
H2073       H  0.59785526  0.69920073  0.52763425     0.12840
C2074       C  0.63474411  0.79877354  0.52540461     0.62370
F2075       F  0.54197462  0.65360028  0.83116637    -0.22800
F2076       F  0.49699678  0.60030086  0.88190658    -0.20130
F2077       F  0.56340141  0.61185053  0.86633403    -0.19800
F2078       F  0.62924640  0.83651659  0.51848114    -0.19860
F2079       F  0.67960757  0.81941921  0.53454764    -0.20180
F2080       F  0.61174335  0.77729523  0.56468033    -0.22850
C2081       C  0.57275812  0.86688835  0.94970979    -0.05690
C2082       C  0.60182640  0.91940526  0.94936042     0.00240
C2083       C  0.64555233  0.94056237  0.93454694    -0.08330
C2084       C  0.66066879  0.90942016  0.92643342    -0.05710
C2085       C  0.63205373  0.85558885  0.92542025     0.00220
C2086       C  0.58483340  0.83517584  0.92900068    -0.08240
C2087       C  0.54861298  0.79295237  0.89448456     0.62130
H2088       H  0.53785009  0.85058733  0.95717820     0.12830
H2089       H  0.69591927  0.92887046  0.92201367     0.12840
C2090       C  0.67669775  0.49633400  0.92839148     0.62370
F2091       F  0.51915410  0.80387717  0.88030843    -0.22800
F2092       F  0.52339504  0.74778774  0.91397473    -0.20130
F2093       F  0.56767936  0.78829160  0.85479933    -0.19800
F2094       F  0.68404947  0.52397114  0.47068605    -0.19860
F2095       F  0.65756135  0.50886002  0.89652571    -0.20180
F2096       F  0.71754438  0.50888889  0.91245977    -0.22850
C2097       C  0.72151014  0.89350444  0.97332941    -0.05690
C2098       C  0.70121634  0.84882465  0.94199484     0.00240
C2099       C  0.73139583  0.83548603  0.92857235    -0.08330
C2100       C  0.77711703  0.87482972  0.92417226    -0.05710
C2101       C  0.79765418  0.91972785  0.95457849     0.00220
C2102       C  0.76884628  0.92889243  0.98044528    -0.08240
C2103       C  0.78439020  0.97951530  0.50655575     0.62130
H2104       H  0.70044450  0.90262525  0.99124018     0.12830
H2105       H  0.79866157  0.86497456  0.90812008     0.12840
C2106       C  0.72805200  0.79129775  0.94735091     0.62370
F2107       F  0.75725249  0.47174208  0.54335122    -0.22800
F2108       F  0.77935262  0.50679454  0.97660750    -0.20130
F2109       F  0.82834809  0.00775958  0.52397358    -0.19800
F2110       F  0.73841910  0.76789190  0.91269604    -0.19860
F2111       F  0.68668434  0.75629395  0.96341932    -0.20180
F2112       F  0.75896015  0.80885497  0.98458561    -0.22850
C2113       C  0.64241895  0.77817609  0.78192728    -0.05690
C2114       C  0.65859406  0.82319960  0.76153032     0.00240
C2115       C  0.68041360  0.86900056  0.79365409    -0.08330
C2116       C  0.68418206  0.86566920  0.84157706    -0.05710
C2117       C  0.66015399  0.81998363  0.86219590     0.00220
C2118       C  0.64614294  0.77637389  0.83030631    -0.08240
C2119       C  0.65624867  0.73898078  0.83998459     0.62130
H2120       H  0.62940120  0.74372714  0.75924339     0.12830
H2121       H  0.70730692  0.89958448  0.86335969     0.12840
C2122       C  0.69874696  0.92224217  0.78065199     0.62370
F2123       F  0.62864416  0.69331588  0.81232755    -0.22800
F2124       F  0.65378969  0.72808404  0.88471127    -0.20130
F2125       F  0.69993388  0.76177394  0.82943187    -0.19800
F2126       F  0.66345504  0.92523973  0.77064189    -0.19860
F2127       F  0.72639185  0.93543813  0.74373784    -0.20180
F2128       F  0.72414117  0.95908447  0.81720618    -0.22850
C2129       C  0.76888495  0.67189673  0.79945219    -0.05690
C2130       C  0.78777519  0.65111814  0.77225734     0.00240
C2131       C  0.76027953  0.59693958  0.77275072    -0.08330
C2132       C  0.71417844  0.57156191  0.76210167    -0.05710
C2133       C  0.69405027  0.59692609  0.77320954     0.00220
C2134       C  0.72148954  0.64662389  0.79654398    -0.08240
C2135       C  0.70244134  0.67510081  0.81241580     0.62130
H2136       H  0.79000253  0.70620412  0.82259391     0.12830
H2137       H  0.69313209  0.03058340  0.75350571     0.12840
C2138       C  0.76945852  0.57533020  0.81159645     0.62370
F2139       F  0.73616814  0.72194734  0.83445790    -0.22800
F2140       F  0.66877879  0.64879813  0.84299396    -0.20130
F2141       F  0.68525276  0.68149602  0.77356904    -0.19800
F2142       F  0.73048254  0.54204536  0.83352391    -0.19860
F2143       F  0.79823255  0.61438263  0.84476125    -0.20180
F2144       F  0.78799400  0.05002124  0.79526389    -0.22850
C2145       C  0.93924069  0.82078667  0.74467372    -0.05690
C2146       C  0.92242267  0.85028268  0.75235564     0.00240
C2147       C  0.88080470  0.82670443  0.77394001    -0.08330
C2148       C  0.85352475  0.77316303  0.77408673    -0.05710
C2149       C  0.87022020  0.74246390  0.76957187     0.00220
C2150       C  0.91804651  0.77273298  0.76243697    -0.08240
C2151       C  0.95018632  0.76642996  0.78802331     0.62130
H2152       H  0.97262226  0.83859865  0.73158502     0.12830
H2153       H  0.81872041  0.75744835  0.77521481     0.12840
C2154       C  0.86466643  0.85683288  0.79738943     0.62370
F2155       F  0.99282946  0.81132709  0.79237225    -0.22800
F2156       F  0.95270314  0.72894928  0.76493695    -0.20130
F2157       F  0.93769977  0.75634357  0.83303024    -0.19800
F2158       F  0.84960325  0.87195071  0.76387850    -0.19860
F2159       F  0.89930330  0.89906132  0.82472970    -0.20180
F2160       F  0.83018394  0.82804026  0.82651559    -0.22850
C2161       C  0.86839170  0.58572839  0.72740020    -0.05690
C2162       C  0.89961451  0.60040629  0.76350724     0.00240
C2163       C  0.90115307  0.63131000  0.80282605    -0.08330
C2164       C  0.87731993  0.65390733  0.79964685    -0.05710
C2165       C  0.85392206  0.64809094  0.75804725     0.00220
C2166       C  0.84311784  0.60521464  0.72539863    -0.08240
C2167       C  0.80411203  0.57387269  0.68935790     0.62130
H2168       H  0.86194067  0.55619907  0.70034717     0.12830
H2169       H  0.87671282  0.67616263  0.82947799     0.12840
C2170       C  0.92806256  0.64103565  0.84683599     0.62370
F2171       F  0.82047004  0.57464317  0.64579419    -0.22800
F2172       F  0.77671959  0.58951125  0.68776089    -0.20130
F2173       F  0.77754872  0.52389158  0.69959805    -0.19800
F2174       F  0.97280297  0.66454210  0.83699895    -0.19860
F2175       F  0.91188010  0.59528954  0.86408224    -0.20180
F2176       F  0.92516619  0.67203333  0.88101100    -0.22850
C2177       C  0.78395911  0.68663085  0.99468231    -0.05690
C2178       C  0.80023530  0.66809525  0.52552451     0.00240
C2179       C  0.76464598  0.62263543  0.54517695    -0.08330
C2180       C  0.71983403  0.60730614  0.54244211    -0.05710
C2181       C  0.70456770  0.62135946  0.50765768     0.00220
C2182       C  0.73752607  0.65895697  0.98041791    -0.08240
C2183       C  0.72439280  0.66675712  0.93457656     0.62130
H2184       H  0.80690669  0.72003150  0.97799577     0.12830
H2185       H  0.69491957  0.57637394  0.56182695     0.12840
C2186       C  0.76840269  0.58382725  0.56481796     0.62370
F2187       F  0.76130142  0.70594861  0.91412419    -0.22800
F2188       F  0.69286821  0.67738828  0.94114258    -0.20130
F2189       F  0.70617631  0.62272791  0.90446400    -0.19800
F2190       F  0.75534763  0.58039808  0.60966228    -0.19860
F2191       F  0.81030219  0.59399814  0.56306700    -0.20180
F2192       F  0.73880395  0.53682896  0.54004512    -0.22850
C2193       C  0.92182892  0.85107199  0.54864325    -0.05690
C2194       C  0.92569621  0.85813391  0.00171050     0.00240
C2195       C  0.90917091  0.81585794  0.96851509    -0.08330
C2196       C  0.88799886  0.76714310  0.98392856    -0.05710
C2197       C  0.88141561  0.75763493  0.03164569     0.00220
C2198       C  0.90515915  0.80359011  0.56477989    -0.08240
C2199       C  0.92258032  0.80887555  0.61449654     0.62130
H2200       H  0.93554487  0.88488081  0.57311180     0.12830
H2201       H  0.87643720  0.73564687  0.95791363     0.12840
C2202       C  0.91373849  0.82247021  0.91697312     0.62370
F2203       F  0.95754056  0.85868547  0.62985254    -0.22800
F2204       F  0.94072906  0.78181969  0.61617025    -0.20130
F2205       F  0.88950821  0.79481630  0.64594424    -0.19800
F2206       F  0.95884923  0.85114318  0.90708907    -0.19860
F2207       F  0.89498403  0.84720369  0.90516691    -0.20180
F2208       F  0.89186611  0.77616685  0.88972098    -0.22850
C2209       C  0.92289199  0.70024841  0.51856326    -0.05690
C2210       C  0.87549753  0.67474438  0.01349724     0.00240
C2211       C  0.85353770  0.62979333  0.98025824    -0.08330
C2212       C  0.87328151  0.60309807  0.97272917    -0.05710
C2213       C  0.91636022  0.62264239  0.98973185     0.00220
C2214       C  0.94354065  0.67426297  0.50834390    -0.08240
C2215       C  0.99327969  0.70068708  0.51800766     0.62130
H2216       H  0.94316648  0.73898824  0.53494964     0.12830
H2217       H  0.85524514  0.56633348  0.95223244     0.12840
C2218       C  0.81548883  0.61337604  0.94539209     0.62370
F2219       F  0.01527654  0.75220436  0.53169296    -0.22800
F2220       F  0.01137102  0.69487752  0.47792607    -0.20130
F2221       F  0.00040990  0.67889068  0.55239477    -0.19800
F2222       F  0.82175210  0.65487070  0.92764350    -0.19860
F2223       F  0.77453253  0.58620132  0.96465909    -0.20180
F2224       F  0.81376774  0.58176484  0.90818439    -0.22850
C2225       C  0.82080785  0.70241644  0.62045964    -0.05690
C2226       C  0.85204851  0.69557078  0.59686339     0.00240
C2227       C  0.87649017  0.68480275  0.62684408    -0.08330
C2228       C  0.87490624  0.69384332  0.67496951    -0.05710
C2229       C  0.83715169  0.68724607  0.69657837     0.00220
C2230       C  0.80796901  0.69066375  0.66671704    -0.08240
C2231       C  0.76257636  0.67972554  0.67917227     0.62130
H2232       H  0.80427483  0.71482941  0.60106387     0.12830
H2233       H  0.90189771  0.70022408  0.69665696     0.12840
C2234       C  0.90733206  0.66789037  0.61479767     0.62370
F2235       F  0.74131767  0.68342593  0.64213326    -0.22800
F2236       F  0.76676348  0.71299935  0.71554253    -0.20130
F2237       F  0.73416791  0.63055982  0.68969147    -0.19800
F2238       F  0.94940267  0.70886562  0.60515117    -0.19860
F2239       F  0.88874220  0.62848807  0.57985570    -0.20180
F2240       F  0.91409013  0.64843771  0.65187240    -0.22850
loop_ 
_geom_bond_atom_site_label_1 
_geom_bond_atom_site_label_2 
_geom_bond_distance 
_geom_bond_site_symmetry_2 
_ccdc_geom_bond_type 
C1          C218   1.616       .  S
C1          C266   1.601       .  S
C1          C517   1.613       .  S
C1          C530   1.596       .  S
C2          C170   1.600       .  S
C2          C189   1.622       .  S
C2          C205   1.594       .  S
C2          C269   1.589       .  S
C3          C106   1.584       .  S
C3          C125   1.612       .  S
C3          C138   1.607       .  S
C3          C157   1.602       .  S
C4           C58   1.610       .  S
C4           C77   1.616       .  S
C4           C90   1.598       .  S
C4          C154   1.594       .  S
C5            O7   1.261       .  A
C5          O300   1.268       .  A
C5          C253   1.491       .  S
Tb6          O17   2.384       .  S
Tb6          O30   2.348       .  S
Tb6          O27   2.364   1_545  S
Tb6         O868   2.372       .  S
Tb6        O1709   2.365   1_445  S
Tb6         O572   2.361   1_545  S
Tb6         O302   2.373       .  S
Tb6         O290   2.384       .  S
O7          Tb11   2.353       .  S
O8           C19   1.264       .  A
O8         Tb571   2.385       .  S
C9           O14   1.259       .  A
C9           O30   1.267       .  A
C9          C109   1.471       .  S
O10          C26   1.261       .  A
O10        Tb286   2.384       .  S
Tb11         O23   2.413       .  S
Tb11        O568   2.385   1_545  S
Tb11        O295   2.420       .  S
Tb11        O300   2.390       .  S
Tb11       O1134   2.303       .  S
Tb11        O861   2.380   1_545  S
Tb11        O573   2.336   1_545  S
O12         C578   1.258       .  A
O12        Tb566   2.361       .  S
O13          C16   1.269       .  A
O13        Tb571   2.336       .  S
O14       Tb1131   2.303   1_455  S
O15          C25   1.290       .  A
O15        Tb291   2.420   1_554  S
C16          O29   1.276       .  A
C16         C234   1.483       .  S
O17        C1144   1.280       .  A
C18          O27   1.263       .  A
C18         O572   1.258       .  A
C18         C682   1.476       .  S
C19         O301   1.262       .  A
C19         C141   1.502       .  S
O20         C285   1.268   1_554  A
O20        Tb291   2.390   1_554  S
O21         C299   1.262   1_554  A
O21        Tb851   2.380   1_554  S
O22        C1145   1.280   1_455  A
O22        Tb286   2.373   1_554  S
O23          C24   1.290       .  A
C24        O1137   1.280       .  A
C24          C51   1.522       .  S
C25        O1142   1.280       .  A
C25          C50   1.517       .  S
C26         O588   1.265   1_556  A
C26         C221   1.506   1_556  S
O28         C586   1.265   1_554  A
O28        Tb846   2.372   1_554  S
O29       Tb1686   2.365       .  S
C31          O46   1.263       .  A
C31          O33   1.259       .  A
C31         C202   1.491       .  S
Tb32         O48   2.432       .  S
Tb32         O43   2.400       .  S
Tb32         O36   2.333       .  S
Tb32         O56   2.377       .  S
Tb32         O53   2.406   1_545  S
Tb32        O614   2.394       .  S
Tb32       O1735   2.360   1_445  S
Tb32        O598   2.372   1_545  S
O33         Tb37   2.315       .  S
O34          C45   1.263       .  A
O34        Tb597   2.377       .  S
C35          O40   1.272       .  A
C35          O56   1.277       .  A
C35          C61   1.513       .  S
O36          C52   1.252       .  A
Tb37         O41   2.355       .  S
Tb37         O46   2.413       .  S
Tb37         O49   2.386       .  S
Tb37        O594   2.377   1_545  S
Tb37       O1160   2.364       .  S
Tb37        O607   2.329   1_545  S
Tb37        O599   2.379   1_545  S
O38          C44   1.262       .  A
O38        Tb592   2.372       .  S
O39          C42   1.277       .  A
O39        Tb597   2.379       .  S
O40       Tb1157   2.364   1_455  S
O41          C51   1.273       .  A
C42          O55   1.274       .  A
C42         C186   1.523       .  S
O43        C1170   1.284   1_455  A
C44         O613   1.259       .  A
C44          C74   1.512       .  S
C45          O47   1.257       .  A
C45          C93   1.481       .  S
O47        Tb597   2.329       .  S
O48        C1171   1.290       .  A
O49          C50   1.278       .  A
C50        O1163   1.284       .  A
C51        O1168   1.290       .  A
C52         O614   1.265       .  A
C52         C173   1.479       .  S
O53         C604   1.259       .  A
O54         C612   1.265       .  A
O54        Tb592   2.394       .  S
O55       Tb1712   2.360       .  S
C57          C58   1.401       .  A
C57          C62   1.420       .  A
C57          H64   1.076       .  S
C58          C59   1.426       .  A
C59          C66   1.515       .  S
C59          C60   1.414       .  A
C60          C61   1.404       .  A
C60          H65   1.084       .  S
C61          C62   1.430       .  A
C62          C63   1.502       .  S
C63          F67   1.378       .  S
C63          F69   1.382   1_455  S
C63        F1188   1.377   1_455  S
C66          F70   1.375       .  S
C66          F71   1.370       .  S
C66          F72   1.385       .  S
F68        C1183   1.377       .  S
C73          C74   1.383       .  A
C73          C78   1.411       .  A
C73          H80   1.084       .  S
C74          C75   1.415       .  A
C75         C642   1.518       .  S
C75          C76   1.428       .  A
C76          C77   1.432       .  A
C76          H81   1.058       .  S
C77          C78   1.456       .  A
C78          C79   1.521       .  S
C79          F83   1.371       .  S
C79          F84   1.357       .  S
C79          F85   1.382       .  S
C82         C635   1.518       .  S
C82          F86   1.379   1_565  S
C82          F87   1.383       .  S
C82          F88   1.383       .  S
C89          C90   1.417       .  A
C89          C94   1.424       .  A
C89          H96   1.081       .  S
C90          C91   1.434       .  A
C91          C98   1.515       .  S
C91          C92   1.384       .  A
C92          C93   1.387       .  A
C92          H97   1.084       .  S
C93          C94   1.419       .  A
C94         C655   1.509       .  S
C95         C654   1.509       .  S
C95          F99   1.376       .  S
C95         F100   1.382       .  S
C95         F101   1.378       .  S
C98         F102   1.382       .  S
C98         F103   1.360       .  S
C98         F104   1.377       .  S
C105        C106   1.413       .  A
C105        C110   1.391       .  A
C105        H112   1.057       .  S
C106        C387   1.440       .  A
C107        C114   1.517   1_556  S
C107        C108   1.419       .  A
C107        C386   1.440       .  A
C108        C389   1.401       .  A
C108        H113   1.084   1_556  S
C109        C110   1.407       .  A
C109        C388   1.401       .  A
C110        C111   1.521       .  S
C111        F115   1.385       .  S
C111        F116   1.379   1_455  S
C111        F117   1.380       .  S
C114        F118   1.378       .  S
C114        F119   1.379       .  S
C114        F120   1.385       .  S
C121        C122   1.390       .  A
C121        C126   1.413       .  A
C121        H128   1.085       .  S
C122        C578   1.476       .  S
C122        C123   1.400       .  A
C123        C690   1.505       .  S
C123        C124   1.400       .  A
C124        C125   1.419       .  A
C124        H129   1.066       .  S
C125        C126   1.448       .  A
C126        C127   1.515       .  S
C127        F131   1.386       .  S
C127        F132   1.373       .  S
C127        F133   1.370       .  S
C130        C683   1.505       .  S
C130        F135   1.383   1_565  S
C130        F136   1.379   1_565  S
C130        F414   1.372   1_565  S
F134        C410   1.372   1_545  S
C137        C138   1.410       .  A
C137        C142   1.417       .  A
C137        H144   1.077       .  S
C138        C139   1.429       .  A
C139        C146   1.515       .  S
C139        C140   1.409       .  A
C140        C141   1.400       .  A
C140        H145   1.086       .  S
C141        C142   1.426       .  A
C142        C423   1.508       .  S
C143        C422   1.508   1_554  S
C143        F149   1.377       .  S
C143        F707   1.377       .  S
C143        F988   1.377   1_554  S
C146        F150   1.373       .  S
C146        F151   1.369       .  S
C146        F152   1.387       .  S
F147        C703   1.377       .  S
F148        C983   1.377   1_545  S
C153        C154   1.406       .  A
C153        C158   1.414       .  A
C153        H160   1.074       .  S
C154        C155   1.444       .  A
C155        C162   1.530       .  S
C155        C156   1.412       .  A
C156        C157   1.401       .  A
C156        H161   1.061       .  S
C157        C158   1.425       .  A
C158        C159   1.502       .  S
C159        F163   1.383       .  S
C159        F164   1.358       .  S
C159        F165   1.356       .  S
C162        F166   1.379       .  S
C162        F167   1.373       .  S
C162        F168   1.380       .  S
C169        C170   1.398       .  A
C169        C174   1.419       .  A
C169        H176   1.075       .  S
C170        C171   1.432       .  A
C171        C178   1.513       .  S
C171        C172   1.400       .  A
C172        C173   1.395       .  A
C172        H737   1.084       .  S
C173        C174   1.412       .  A
C174        C175   1.478       .  S
C175        F179   1.378       .  S
C175        F180   1.382       .  S
C175        F181   1.381       .  S
H177        C732   1.084       .  S
C178        F182   1.382       .  S
C178        F183   1.371       .  S
C178        F744   1.378       .  S
F184        C738   1.378       .  S
C185        C186   1.401       .  A
C185        C190   1.425       .  A
C185        H192   1.081       .  S
C186        C187   1.411       .  A
C187        C194   1.507       .  S
C187        C188   1.414       .  A
C188        C189   1.428       .  A
C188        H193   1.059       .  S
C189        C190   1.446       .  A
C190        C191   1.512       .  S
C191        F195   1.379       .  S
C191        F196   1.375       .  S
C191        F197   1.375       .  S
C194        F198   1.375       .  S
C194        F199   1.383       .  S
C194        F200   1.384       .  S
C201        C202   1.386       .  A
C201        C206   1.387       .  A
C201        H208   1.086       .  S
C202        C203   1.417       .  A
C203        C210   1.509       .  S
C203        C204   1.429       .  A
C204        C205   1.416       .  A
C204        H209   1.076       .  S
C205        C206   1.447       .  A
C206        C207   1.519       .  S
C207        F211   1.378       .  S
C207        F212   1.356       .  S
C207        F213   1.383       .  S
C210        F214   1.381       .  S
C210        F215   1.382       .  S
C210        F216   1.384       .  S
C217        C222   1.425       .  A
C217        C498   1.425       .  A
C217        H224   1.069       .  S
C218        C219   1.449       .  A
C218        C497   1.425   1_554  A
C219        C226   1.501       .  S
C219        C220   1.405       .  A
C220        C221   1.385       .  A
C220        H225   1.086       .  S
C221        C502   1.416   1_554  A
C222        C223   1.505       .  S
C222        C501   1.416       .  A
C223        F227   1.383       .  S
C223        F228   1.380       .  S
C223        F229   1.383       .  S
C226        F230   1.363       .  S
C226        F231   1.363       .  S
C226        F232   1.381       .  S
C233        C238   1.413       .  A
C233        C514   1.386       .  A
C233        H240   1.084       .  S
C234        C235   1.402       .  A
C234        C513   1.386       .  A
C235        C242   1.516       .  S
C235        C236   1.413       .  A
C236        C237   1.426       .  A
C236        H241   1.070       .  S
C237        C281   1.613       .  S
C237        C518   1.463       .  A
C238        C239   1.531       .  S
C238        C517   1.463       .  A
C239        F243   1.387       .  S
C239        F244   1.371       .  S
C239        F245   1.375       .  S
C242        F246   1.384       .  S
C242        F247   1.382       .  S
C242        F248   1.382       .  S
C249        C254   1.425       .  A
C249        C530   1.421       .  A
C249        H256   1.080       .  S
C250        C281   1.596       .  S
C250        C251   1.444       .  A
C250        C529   1.421       .  A
C251        C258   1.518       .  S
C251        C252   1.408       .  A
C252        C253   1.385       .  A
C252        H257   1.082       .  S
C253        C534   1.411       .  A
C254        C255   1.506       .  S
C254        C533   1.411   1_554  A
C255        F259   1.384       .  S
C255        F260   1.372   1_554  S
C255        F261   1.379       .  S
C258        F262   1.375       .  S
C258        F263   1.363       .  S
C258        F264   1.385       .  S
C265        C266   1.429       .  A
C265        C270   1.420       .  A
C265        H272   1.081       .  S
C266        C267   1.449       .  A
C267        C274   1.529       .  S
C267        C268   1.398       .  A
C268        C269   1.408       .  A
C268        H273   1.077       .  S
C269        C270   1.437       .  A
C270        C271   1.521       .  S
C271        F275   1.383       .  S
C271        F276   1.371       .  S
C271        F277   1.369       .  S
C274        F278   1.376       .  S
C274        F279   1.370       .  S
C274        F280   1.384       .  S
C281        C498   1.616       .  S
C281        C546   1.601       .  S
C282        C450   1.600       .  S
C282        C469   1.622       .  S
C282        C485   1.594       .  S
C282        C549   1.589       .  S
C283        C386   1.584       .  S
C283        C405   1.612       .  S
C283        C418   1.607       .  S
C283        C437   1.602       .  S
C284        C338   1.610       .  S
C284        C357   1.616       .  S
C284        C370   1.598       .  S
C284        C434   1.594       .  S
C285        O287   1.261       .  A
C285        C533   1.491       .  S
Tb286       O588   2.372   1_556  S
Tb286      O1989   2.365   1_445  S
Tb286       O852   2.361   1_546  S
Tb286       O297   2.384       .  S
Tb286       O310   2.348       .  S
Tb286       O307   2.364   1_545  S
O287       Tb291   2.353       .  S
O288        C299   1.264       .  A
O288       Tb851   2.385       .  S
C289        O294   1.259       .  A
C289        O310   1.267       .  A
C289        C389   1.471       .  S
O290        C306   1.261       .  A
Tb291       O848   2.385   1_545  S
Tb291      O1414   2.303       .  S
Tb291       O581   2.380   1_546  S
Tb291       O303   2.413       .  S
Tb291       O853   2.336   1_545  S
O292        C858   1.258   1_554  A
O292       Tb846   2.361   1_554  S
O293        C296   1.269       .  A
O293       Tb851   2.336       .  S
O294      Tb1411   2.303   1_455  S
O295        C305   1.290       .  A
C296        O309   1.276       .  A
C296        C514   1.483   1_556  S
O297       C1424   1.280       .  A
C298        O852   1.258   1_556  A
C298        O307   1.263       .  A
C298        C962   1.476       .  S
C299        C421   1.502       .  S
O301       Tb571   2.380       .  S
O302       C1425   1.280   1_455  A
O303        C304   1.290       .  A
C304       O1417   1.280       .  A
C304        C331   1.522       .  S
C305       O1422   1.280       .  A
C305        C330   1.517       .  S
C306        O868   1.265       .  A
C306        C501   1.506       .  S
O308        C866   1.265       .  A
O308       Tb566   2.372       .  S
O309      Tb1966   2.365       .  S
C311        O326   1.263       .  A
C311        O313   1.259       .  A
C311        C482   1.491       .  S
Tb312       O894   2.394       .  S
Tb312      O2015   2.360   1_445  S
Tb312       O878   2.372   1_545  S
Tb312       O328   2.432       .  S
Tb312       O323   2.400       .  S
Tb312       O316   2.333       .  S
Tb312       O336   2.377       .  S
Tb312       O333   2.406   1_545  S
O313       Tb317   2.315       .  S
O314        C325   1.263       .  A
O314       Tb877   2.377       .  S
C315        O320   1.272       .  A
C315        O336   1.277       .  A
C315        C341   1.513       .  S
O316        C332   1.252       .  A
Tb317       O874   2.377   1_545  S
Tb317       O321   2.355       .  S
Tb317       O326   2.413       .  S
Tb317      O1440   2.364       .  S
Tb317       O887   2.329   1_545  S
Tb317       O329   2.386       .  S
Tb317       O879   2.379   1_545  S
O318        C324   1.262       .  A
O318       Tb872   2.372       .  S
O319        C322   1.277       .  A
O319       Tb877   2.379       .  S
O320      Tb1437   2.364   1_455  S
O321        C331   1.273       .  A
C322        O335   1.274       .  A
C322        C466   1.523       .  S
O323       C1450   1.284   1_455  A
C324        O893   1.259       .  A
C324        C354   1.512       .  S
C325        O327   1.257       .  A
C325        C373   1.481       .  S
O327       Tb877   2.329       .  S
O328       C1451   1.290       .  A
O329        C330   1.278       .  A
C330       O1443   1.284       .  A
C331       O1448   1.290       .  A
C332        O894   1.265       .  A
C332        C453   1.479       .  S
O333        C884   1.259       .  A
O334        C892   1.265       .  A
O334       Tb872   2.394       .  S
O335      Tb1992   2.360       .  S
C337        C338   1.401       .  A
C337        C342   1.420       .  A
C337        H344   1.076       .  S
C338        C339   1.426       .  A
C339        C346   1.515       .  S
C339        C340   1.414       .  A
C340        C341   1.404       .  A
C340        H345   1.084       .  S
C341        C342   1.430       .  A
C342        C343   1.502       .  S
C343        F347   1.378       .  S
C343       F1468   1.377   1_455  S
C343        F349   1.382   1_455  S
C346        F350   1.375       .  S
C346        F351   1.370       .  S
C346        F352   1.385       .  S
F348       C1463   1.377       .  S
C353        C354   1.383       .  A
C353        C358   1.411       .  A
C353        H360   1.084       .  S
C354        C355   1.415       .  A
C355        C922   1.518       .  S
C355        C356   1.428       .  A
C356        C357   1.432       .  A
C356        H361   1.058       .  S
C357        C358   1.456       .  A
C358        C359   1.521       .  S
C359        F363   1.371       .  S
C359        F364   1.357       .  S
C359        F365   1.382       .  S
C362        C915   1.518       .  S
C362        F366   1.379   1_565  S
C362        F367   1.383       .  S
C362        F368   1.383       .  S
C369        C370   1.417       .  A
C369        C374   1.424       .  A
C369        H376   1.081       .  S
C370        C371   1.434       .  A
C371        C378   1.515       .  S
C371        C372   1.384       .  A
C372        C373   1.387       .  A
C372        H377   1.084       .  S
C373        C374   1.419       .  A
C374        C935   1.509       .  S
C375        C934   1.509       .  S
C375        F379   1.376       .  S
C375        F380   1.382       .  S
C375        F381   1.378       .  S
C378        F382   1.382       .  S
C378        F383   1.360       .  S
C378        F384   1.377       .  S
C385        C386   1.413       .  A
C385        C390   1.391       .  A
C385        H392   1.057       .  S
C387        C394   1.517       .  S
C387        C388   1.419       .  A
C388        H393   1.084       .  S
C389        C390   1.407       .  A
C390        C391   1.521       .  S
C391        F395   1.385       .  S
C391        F396   1.379   1_455  S
C391        F397   1.380       .  S
C394        F398   1.378       .  S
C394        F399   1.379       .  S
C394        F400   1.385       .  S
C401        C402   1.390       .  A
C401        C406   1.413       .  A
C401        H408   1.085       .  S
C402        C858   1.476       .  S
C402        C403   1.400       .  A
C403        C970   1.505       .  S
C403        C404   1.400       .  A
C404        C405   1.419       .  A
C404        H409   1.066       .  S
C405        C406   1.448       .  A
C406        C407   1.515       .  S
C407        F411   1.386       .  S
C407        F412   1.373       .  S
C407        F413   1.370       .  S
C410        C963   1.505       .  S
C410        F415   1.383   1_565  S
C410        F416   1.379   1_565  S
C417        C418   1.410       .  A
C417        C422   1.417       .  A
C417        H424   1.077       .  S
C418        C419   1.429       .  A
C419        C426   1.515       .  S
C419        C420   1.409       .  A
C420        C421   1.400       .  A
C420        H425   1.086       .  S
C421        C422   1.426       .  A
C423        F987   1.377       .  S
C423        F708   1.377       .  S
C423        F429   1.377       .  S
C426        F430   1.373       .  S
C426        F431   1.369       .  S
C426        F432   1.387       .  S
F427        C983   1.377       .  S
F428        C703   1.377   1_546  S
C433        C434   1.406       .  A
C433        C438   1.414       .  A
C433        H440   1.074       .  S
C434        C435   1.444       .  A
C435        C442   1.530       .  S
C435        C436   1.412       .  A
C436        C437   1.401       .  A
C436        H441   1.061       .  S
C437        C438   1.425       .  A
C438        C439   1.502       .  S
C439        F443   1.383       .  S
C439        F444   1.358       .  S
C439        F445   1.356       .  S
C442        F446   1.379       .  S
C442        F447   1.373       .  S
C442        F448   1.380       .  S
C449        C450   1.398       .  A
C449        C454   1.419       .  A
C449        H456   1.075       .  S
C450        C451   1.432       .  A
C451        C458   1.513       .  S
C451        C452   1.400       .  A
C452        C453   1.395       .  A
C452       H1017   1.084       .  S
C453        C454   1.412       .  A
C454        C455   1.478       .  S
C455        F459   1.378       .  S
C455        F460   1.382       .  S
C455        F461   1.381       .  S
H457       C1012   1.084       .  S
C458        F462   1.382       .  S
C458        F463   1.371       .  S
C458       F1024   1.378       .  S
F464       C1018   1.378       .  S
C465        C466   1.401       .  A
C465        C470   1.425       .  A
C465        H472   1.081       .  S
C466        C467   1.411       .  A
C467        C474   1.507       .  S
C467        C468   1.414       .  A
C468        C469   1.428       .  A
C468        H473   1.059       .  S
C469        C470   1.446       .  A
C470        C471   1.512       .  S
C471        F475   1.379       .  S
C471        F476   1.375       .  S
C471        F477   1.375       .  S
C474        F478   1.375       .  S
C474        F479   1.383       .  S
C474        F480   1.384       .  S
C481        C482   1.386       .  A
C481        C486   1.387       .  A
C481        H488   1.086       .  S
C482        C483   1.417       .  A
C483        C490   1.509       .  S
C483        C484   1.429       .  A
C484        C485   1.416       .  A
C484        H489   1.076       .  S
C485        C486   1.447       .  A
C486        C487   1.519       .  S
C487        F491   1.378       .  S
C487        F492   1.356       .  S
C487        F493   1.383       .  S
C490        F494   1.381       .  S
C490        F495   1.382       .  S
C490        F496   1.384       .  S
C497        C502   1.425       .  A
C497        H504   1.069       .  S
C498        C499   1.449       .  A
C499        C506   1.501       .  S
C499        C500   1.405       .  A
C500        C501   1.385       .  A
C500        H505   1.086       .  S
C502        C503   1.505       .  S
C503        F507   1.383       .  S
C503        F508   1.380       .  S
C503        F509   1.383       .  S
C506        F510   1.363       .  S
C506        F511   1.363       .  S
C506        F512   1.381       .  S
C513        C518   1.413       .  A
C513        H520   1.084       .  S
C514        C515   1.402   1_554  A
C515        C522   1.516       .  S
C515        C516   1.413       .  A
C516        C517   1.426   1_556  A
C516        H521   1.070       .  S
C518        C519   1.531       .  S
C519        F523   1.387       .  S
C519        F524   1.371       .  S
C519        F525   1.375       .  S
C522        F526   1.384       .  S
C522        F527   1.382       .  S
C522        F528   1.382       .  S
C529        C534   1.425       .  A
C529        H536   1.080       .  S
C530        C531   1.444   1_554  A
C531        C538   1.518       .  S
C531        C532   1.408       .  A
C532        C533   1.385       .  A
C532        H537   1.082       .  S
C534        C535   1.506       .  S
C535        F539   1.384       .  S
C535        F540   1.372       .  S
C535        F541   1.379       .  S
C538        F542   1.375       .  S
C538        F543   1.363       .  S
C538        F544   1.385       .  S
C545        C546   1.429       .  A
C545        C550   1.420       .  A
C545        H552   1.081       .  S
C546        C547   1.449       .  A
C547        C554   1.529       .  S
C547        C548   1.398       .  A
C548        C549   1.408       .  A
C548        H553   1.077       .  S
C549        C550   1.437       .  A
C550        C551   1.521       .  S
C551        F555   1.383       .  S
C551        F556   1.371       .  S
C551        F557   1.369       .  S
C554        F558   1.376       .  S
C554        F559   1.370       .  S
C554        F560   1.384       .  S
C561        C778   1.616       .  S
C561       C1077   1.613       .  S
C561       C1090   1.596       .  S
C561        C826   1.601       .  S
C562        C730   1.600       .  S
C562        C749   1.622       .  S
C562        C765   1.594       .  S
C562        C829   1.589       .  S
C563        C666   1.584       .  S
C563        C685   1.612       .  S
C563        C698   1.607       .  S
C563        C717   1.602       .  S
C564        C618   1.610       .  S
C564        C637   1.616       .  S
C564        C650   1.598       .  S
C564        C714   1.594       .  S
C565        O860   1.268       .  A
C565        O567   1.261       .  A
C565        C813   1.491       .  S
Tb566      O1149   2.365   1_455  S
Tb566       O862   2.373       .  S
Tb566       O577   2.384       .  S
Tb566       O850   2.384       .  S
Tb566       O590   2.348       .  S
Tb566       O587   2.364       .  S
O567       Tb571   2.353       .  S
O568        C579   1.264       .  A
C569        O574   1.259       .  A
C569        O590   1.267       .  A
C569        C669   1.471       .  S
O570        C586   1.261       .  A
O570       Tb846   2.384       .  S
Tb571       O855   2.420       .  S
Tb571       O860   2.390       .  S
Tb571      O1694   2.303       .  S
Tb571       O583   2.413       .  S
O573        C576   1.269       .  A
O574      Tb1691   2.303   1_455  S
O575        C585   1.290       .  A
O575       Tb851   2.420   1_554  S
C576        O589   1.276       .  A
C576        C794   1.482       .  S
O577       C1704   1.280       .  A
C578        O587   1.263       .  A
C579        O861   1.262       .  A
C579        C701   1.502       .  S
O580        C845   1.268   1_554  A
O580       Tb851   2.390   1_554  S
O581        C859   1.262   1_554  A
O582       C1705   1.280   1_455  A
O582       Tb846   2.373   1_554  S
O583        C584   1.290       .  A
C584       O1697   1.280       .  A
C584        C611   1.522       .  S
C585       O1702   1.280       .  A
C585        C610   1.517       .  S
C586        C781   1.506   1_556  S
O589      Tb1126   2.365   1_565  S
C591        O606   1.263       .  A
C591        O593   1.259       .  A
C591        C762   1.491       .  S
Tb592      O1175   2.360   1_455  S
Tb592       O608   2.432       .  S
Tb592       O603   2.400       .  S
Tb592       O596   2.333       .  S
Tb592       O616   2.377       .  S
Tb592       O613   2.406       .  S
O593       Tb597   2.315       .  S
O594        C605   1.263       .  A
C595        O600   1.272       .  A
C595        O616   1.277       .  A
C595        C621   1.513       .  S
O596        C612   1.252       .  A
Tb597       O601   2.355       .  S
Tb597       O606   2.413       .  S
Tb597      O1720   2.364       .  S
Tb597       O609   2.386       .  S
O598        C604   1.262       .  A
O599        C602   1.277       .  A
O600      Tb1717   2.364   1_455  S
O601        C611   1.273       .  A
C602        O615   1.274       .  A
C602        C746   1.523       .  S
O603       C1730   1.284   1_455  A
C604        C634   1.512       .  S
C605        O607   1.257       .  A
C605        C653   1.481       .  S
O608       C1731   1.290       .  A
O609        C610   1.278       .  A
C610       O1723   1.284       .  A
C611       O1728   1.290       .  A
C612        C733   1.479       .  S
O615      Tb1152   2.360   1_565  S
C617        C618   1.401       .  A
C617        C622   1.420       .  A
C617        H624   1.076       .  S
C618        C619   1.426       .  A
C619        C626   1.515       .  S
C619        C620   1.414       .  A
C620        C621   1.404       .  A
C620        H625   1.084       .  S
C621        C622   1.430       .  A
C622        C623   1.503       .  S
C623        F627   1.378       .  S
C623       F1748   1.377   1_455  S
C623        F629   1.382   1_455  S
C626        F630   1.375       .  S
C626        F631   1.370       .  S
C626        F632   1.385       .  S
F628       C1743   1.377       .  S
C633        C634   1.383       .  A
C633        C638   1.411       .  A
C633        H640   1.084       .  S
C634        C635   1.415       .  A
C635        C636   1.428       .  A
C636        C637   1.432       .  A
C636        H641   1.058       .  S
C637        C638   1.456       .  A
C638        C639   1.521       .  S
C639        F643   1.371       .  S
C639        F644   1.357       .  S
C639        F645   1.382       .  S
C642        F646   1.379       .  S
C642        F647   1.383       .  S
C642        F648   1.383       .  S
C649        C650   1.417       .  A
C649        C654   1.424       .  A
C649        H656   1.081       .  S
C650        C651   1.434       .  A
C651        C658   1.515       .  S
C651        C652   1.384       .  A
C652        C653   1.387       .  A
C652        H657   1.084       .  S
C653        C654   1.419       .  A
C655        F659   1.376       .  S
C655        F660   1.382       .  S
C655        F661   1.378       .  S
C658        F662   1.382       .  S
C658        F663   1.360       .  S
C658        F664   1.377       .  S
C665        C666   1.413       .  A
C665        C670   1.391       .  A
C665        H672   1.057       .  S
C666        C947   1.439       .  A
C667        C674   1.517   1_556  S
C667        C946   1.439       .  A
C667        C668   1.419       .  A
C668        C949   1.401       .  A
C668        H673   1.084   1_556  S
C669        C948   1.401       .  A
C669        C670   1.407       .  A
C670        C671   1.521       .  S
C671        F675   1.385       .  S
C671        F676   1.379   1_455  S
C671        F677   1.380       .  S
C674        F678   1.378       .  S
C674        F679   1.379       .  S
C674        F680   1.385       .  S
C681        C682   1.390       .  A
C681        C686   1.413       .  A
C681        H688   1.085       .  S
C682        C683   1.400       .  A
C683        C684   1.400       .  A
C684        C685   1.419       .  A
C684        H689   1.066       .  S
C685        C686   1.448       .  A
C686        C687   1.515       .  S
C687        F691   1.386       .  S
C687        F692   1.373       .  S
C687        F693   1.370       .  S
C690        F974   1.372       .  S
C690        F695   1.383       .  S
C690        F696   1.379       .  S
F694        C970   1.372       .  S
C697        C698   1.410       .  A
C697        C702   1.418       .  A
C697        H704   1.077       .  S
C698        C699   1.429       .  A
C699        C706   1.515       .  S
C699        C700   1.409       .  A
C700        C701   1.400       .  A
C700        H705   1.086       .  S
C701        C702   1.426       .  A
C702        C983   1.508       .  S
C703        C982   1.508   1_554  S
C703        F709   1.377   1_565  S
C706        F710   1.373       .  S
C706        F711   1.369       .  S
C706        F712   1.387       .  S
C713        C714   1.406       .  A
C713        C718   1.414       .  A
C713        H720   1.074       .  S
C714        C715   1.444       .  A
C715        C722   1.530       .  S
C715        C716   1.412       .  A
C716        C717   1.401       .  A
C716        H721   1.061       .  S
C717        C718   1.425       .  A
C718        C719   1.502       .  S
C719        F723   1.383       .  S
C719        F724   1.358       .  S
C719        F725   1.356       .  S
C722        F726   1.379       .  S
C722        F727   1.373       .  S
C722        F728   1.380       .  S
C729        C730   1.398       .  A
C729        C734   1.419       .  A
C729        H736   1.075       .  S
C730        C731   1.432       .  A
C731        C738   1.513       .  S
C731        C732   1.400       .  A
C732        C733   1.395       .  A
C733        C734   1.412       .  A
C734        C735   1.478       .  S
C735        F739   1.378       .  S
C735        F740   1.382       .  S
C735        F741   1.381       .  S
C738        F742   1.382       .  S
C738        F743   1.371       .  S
C745        C746   1.401       .  A
C745        C750   1.425       .  A
C745        H752   1.081       .  S
C746        C747   1.411       .  A
C747        C754   1.507       .  S
C747        C748   1.414       .  A
C748        C749   1.428       .  A
C748        H753   1.059       .  S
C749        C750   1.446       .  A
C750        C751   1.512       .  S
C751        F755   1.379       .  S
C751        F756   1.375       .  S
C751        F757   1.375       .  S
C754        F758   1.375       .  S
C754        F759   1.383       .  S
C754        F760   1.384       .  S
C761        C762   1.386       .  A
C761        C766   1.387       .  A
C761        H768   1.086       .  S
C762        C763   1.417       .  A
C763        C770   1.509       .  S
C763        C764   1.429       .  A
C764        C765   1.416       .  A
C764        H769   1.076       .  S
C765        C766   1.447       .  A
C766        C767   1.519       .  S
C767        F771   1.378       .  S
C767        F772   1.356       .  S
C767        F773   1.383       .  S
C770        F774   1.381       .  S
C770        F775   1.382       .  S
C770        F776   1.384       .  S
C777       C1058   1.425       .  A
C777        C782   1.425       .  A
C777        H784   1.069       .  S
C778       C1057   1.425   1_554  A
C778        C779   1.449       .  A
C779        C786   1.501       .  S
C779        C780   1.405       .  A
C780        C781   1.385       .  A
C780        H785   1.086       .  S
C781       C1062   1.416   1_554  A
C782        C783   1.505       .  S
C782       C1061   1.416       .  A
C783        F787   1.383       .  S
C783        F788   1.380       .  S
C783        F789   1.383       .  S
C786        F790   1.363       .  S
C786        F791   1.363       .  S
C786        F792   1.381       .  S
C793       C1074   1.386       .  A
C793        C798   1.413       .  A
C793        H800   1.084       .  S
C794       C1073   1.386       .  A
C794        C795   1.402       .  A
C795        C802   1.516       .  S
C795        C796   1.413       .  A
C796        C797   1.426       .  A
C796        H801   1.070       .  S
C797        C841   1.613       .  S
C797       C1078   1.463       .  A
C798        C799   1.531       .  S
C798       C1077   1.463       .  A
C799        F803   1.387       .  S
C799        F804   1.371       .  S
C799        F805   1.375       .  S
C802        F806   1.384       .  S
C802        F807   1.382       .  S
C802        F808   1.382       .  S
C809       C1090   1.421       .  A
C809        C814   1.425       .  A
C809        H816   1.080       .  S
C810        C841   1.596       .  S
C810       C1089   1.421       .  A
C810        C811   1.444       .  A
C811        C818   1.518       .  S
C811        C812   1.408       .  A
C812        C813   1.385       .  A
C812        H817   1.082       .  S
C813       C1094   1.411       .  A
C814        C815   1.506       .  S
C814       C1093   1.411   1_554  A
C815        F819   1.384       .  S
C815        F820   1.372   1_554  S
C815        F821   1.379       .  S
C818        F822   1.375       .  S
C818        F823   1.363       .  S
C818        F824   1.385       .  S
C825        C826   1.429       .  A
C825        C830   1.420       .  A
C825        H832   1.081       .  S
C826        C827   1.449       .  A
C827        C834   1.529       .  S
C827        C828   1.398       .  A
C828        C829   1.408       .  A
C828        H833   1.077       .  S
C829        C830   1.437       .  A
C830        C831   1.521       .  S
C831        F835   1.383       .  S
C831        F836   1.371       .  S
C831        F837   1.369       .  S
C834        F838   1.376       .  S
C834        F839   1.370       .  S
C834        F840   1.384       .  S
C841       C1058   1.616       .  S
C841       C1106   1.601       .  S
C842       C1010   1.600       .  S
C842       C1029   1.622       .  S
C842       C1045   1.594       .  S
C842       C1109   1.589       .  S
C843        C946   1.584       .  S
C843        C965   1.612       .  S
C843        C978   1.607       .  S
C843        C997   1.602       .  S
C844        C898   1.610       .  S
C844        C917   1.616       .  S
C844        C930   1.598       .  S
C844        C994   1.594       .  S
C845        O847   1.261       .  A
C845       C1093   1.491       .  S
Tb846      O1429   2.365   1_455  S
Tb846       O857   2.384       .  S
Tb846       O870   2.348       .  S
Tb846       O867   2.364       .  S
O847       Tb851   2.353       .  S
O848        C859   1.264       .  A
C849        O854   1.259       .  A
C849        O870   1.267       .  A
C849        C949   1.471       .  S
O850        C866   1.261       .  A
Tb851      O1974   2.303       .  S
Tb851       O863   2.413       .  S
O853        C856   1.269       .  A
O854      Tb1971   2.303   1_455  S
O855        C865   1.290       .  A
C856        O869   1.276       .  A
C856       C1074   1.482   1_556  S
O857       C1984   1.280       .  A
C858        O867   1.263       .  A
C859        C981   1.502       .  S
O862       C1985   1.280   1_455  A
O863        C864   1.290       .  A
C864       O1977   1.280       .  A
C864        C891   1.522       .  S
C865       O1982   1.280       .  A
C865        C890   1.517       .  S
C866       C1061   1.506       .  S
O869      Tb1406   2.365   1_565  S
C871        O886   1.263       .  A
C871        O873   1.259       .  A
C871       C1042   1.491       .  S
Tb872      O1455   2.360   1_455  S
Tb872       O888   2.432       .  S
Tb872       O883   2.400       .  S
Tb872       O876   2.333       .  S
Tb872       O896   2.377       .  S
Tb872       O893   2.406       .  S
O873       Tb877   2.315       .  S
O874        C885   1.263       .  A
C875        O880   1.272       .  A
C875        O896   1.277       .  A
C875        C901   1.513       .  S
O876        C892   1.252       .  A
Tb877       O881   2.355       .  S
Tb877       O886   2.413       .  S
Tb877      O2000   2.364       .  S
Tb877       O889   2.386       .  S
O878        C884   1.262       .  A
O879        C882   1.277       .  A
O880      Tb1997   2.364   1_455  S
O881        C891   1.273       .  A
C882        O895   1.274       .  A
C882       C1026   1.523       .  S
O883       C2010   1.284   1_455  A
C884        C914   1.512       .  S
C885        O887   1.257       .  A
C885        C933   1.481       .  S
O888       C2011   1.290       .  A
O889        C890   1.278       .  A
C890       O2003   1.284       .  A
C891       O2008   1.290       .  A
C892       C1013   1.479       .  S
O895      Tb1432   2.360   1_565  S
C897        C898   1.401       .  A
C897        C902   1.420       .  A
C897        H904   1.076       .  S
C898        C899   1.426       .  A
C899        C906   1.515       .  S
C899        C900   1.414       .  A
C900        C901   1.404       .  A
C900        H905   1.084       .  S
C901        C902   1.430       .  A
C902        C903   1.503       .  S
C903        F907   1.378       .  S
C903       F2028   1.377   1_455  S
C903        F909   1.382   1_455  S
C906        F910   1.375       .  S
C906        F911   1.370       .  S
C906        F912   1.385       .  S
F908       C2023   1.377       .  S
C913        C914   1.383       .  A
C913        C918   1.411       .  A
C913        H920   1.084       .  S
C914        C915   1.415       .  A
C915        C916   1.428       .  A
C916        C917   1.432       .  A
C916        H921   1.058       .  S
C917        C918   1.456       .  A
C918        C919   1.521       .  S
C919        F923   1.371       .  S
C919        F924   1.357       .  S
C919        F925   1.382       .  S
C922        F926   1.379       .  S
C922        F927   1.383       .  S
C922        F928   1.383       .  S
C929        C930   1.417       .  A
C929        C934   1.424       .  A
C929        H936   1.081       .  S
C930        C931   1.434       .  A
C931        C938   1.515       .  S
C931        C932   1.384       .  A
C932        C933   1.387       .  A
C932        H937   1.084       .  S
C933        C934   1.419       .  A
C935        F939   1.376       .  S
C935        F940   1.382       .  S
C935        F941   1.378       .  S
C938        F942   1.382       .  S
C938        F943   1.360       .  S
C938        F944   1.377       .  S
C945        C946   1.413       .  A
C945        C950   1.391       .  A
C945        H952   1.057       .  S
C947        C954   1.517       .  S
C947        C948   1.419       .  A
C948        H953   1.084       .  S
C949        C950   1.407       .  A
C950        C951   1.521       .  S
C951        F955   1.385       .  S
C951        F956   1.379   1_455  S
C951        F957   1.380       .  S
C954        F958   1.378       .  S
C954        F959   1.379       .  S
C954        F960   1.385       .  S
C961        C962   1.390       .  A
C961        C966   1.413       .  A
C961        H968   1.085       .  S
C962        C963   1.400       .  A
C963        C964   1.400       .  A
C964        C965   1.419       .  A
C964        H969   1.066       .  S
C965        C966   1.448       .  A
C966        C967   1.515       .  S
C967        F971   1.386       .  S
C967        F972   1.373       .  S
C967        F973   1.370       .  S
C970        F975   1.383       .  S
C970        F976   1.379       .  S
C977        C978   1.410       .  A
C977        C982   1.418       .  A
C977        H984   1.077       .  S
C978        C979   1.429       .  A
C979        C986   1.515       .  S
C979        C980   1.409       .  A
C980        C981   1.400       .  A
C980        H985   1.086       .  S
C981        C982   1.426       .  A
C983        F989   1.377   1_565  S
C986        F990   1.373       .  S
C986        F991   1.369       .  S
C986        F992   1.387       .  S
C993        C994   1.406       .  A
C993        C998   1.414       .  A
C993       H1000   1.074       .  S
C994        C995   1.444       .  A
C995       C1002   1.530       .  S
C995        C996   1.412       .  A
C996        C997   1.401       .  A
C996       H1001   1.061       .  S
C997        C998   1.425       .  A
C998        C999   1.502       .  S
C999       F1003   1.383       .  S
C999       F1004   1.358       .  S
C999       F1005   1.356       .  S
C1002      F1006   1.379       .  S
C1002      F1007   1.373       .  S
C1002      F1008   1.380       .  S
C1009      C1010   1.398       .  A
C1009      C1014   1.419       .  A
C1009      H1016   1.075       .  S
C1010      C1011   1.432       .  A
C1011      C1018   1.513       .  S
C1011      C1012   1.400       .  A
C1012      C1013   1.395       .  A
C1013      C1014   1.412       .  A
C1014      C1015   1.478       .  S
C1015      F1019   1.378       .  S
C1015      F1020   1.382       .  S
C1015      F1021   1.381       .  S
C1018      F1022   1.382       .  S
C1018      F1023   1.371       .  S
C1025      C1026   1.401       .  A
C1025      C1030   1.425       .  A
C1025      H1032   1.081       .  S
C1026      C1027   1.411       .  A
C1027      C1034   1.507       .  S
C1027      C1028   1.414       .  A
C1028      C1029   1.428       .  A
C1028      H1033   1.059       .  S
C1029      C1030   1.446       .  A
C1030      C1031   1.512       .  S
C1031      F1035   1.379       .  S
C1031      F1036   1.375       .  S
C1031      F1037   1.375       .  S
C1034      F1038   1.375       .  S
C1034      F1039   1.383       .  S
C1034      F1040   1.384       .  S
C1041      C1042   1.386       .  A
C1041      C1046   1.387       .  A
C1041      H1048   1.086       .  S
C1042      C1043   1.417       .  A
C1043      C1050   1.509       .  S
C1043      C1044   1.429       .  A
C1044      C1045   1.416       .  A
C1044      H1049   1.076       .  S
C1045      C1046   1.447       .  A
C1046      C1047   1.519       .  S
C1047      F1051   1.378       .  S
C1047      F1052   1.356       .  S
C1047      F1053   1.383       .  S
C1050      F1054   1.381       .  S
C1050      F1055   1.382       .  S
C1050      F1056   1.384       .  S
C1057      C1062   1.425       .  A
C1057      H1064   1.069       .  S
C1058      C1059   1.449       .  A
C1059      C1066   1.501       .  S
C1059      C1060   1.405       .  A
C1060      C1061   1.385       .  A
C1060      H1065   1.086       .  S
C1062      C1063   1.505       .  S
C1063      F1067   1.383       .  S
C1063      F1068   1.380       .  S
C1063      F1069   1.383       .  S
C1066      F1070   1.363       .  S
C1066      F1071   1.363       .  S
C1066      F1072   1.381       .  S
C1073      C1078   1.413       .  A
C1073      H1080   1.084       .  S
C1074      C1075   1.402   1_554  A
C1075      C1082   1.516       .  S
C1075      C1076   1.413       .  A
C1076      C1077   1.426   1_556  A
C1076      H1081   1.070       .  S
C1078      C1079   1.531       .  S
C1079      F1083   1.387       .  S
C1079      F1084   1.371       .  S
C1079      F1085   1.375       .  S
C1082      F1086   1.384       .  S
C1082      F1087   1.382       .  S
C1082      F1088   1.382       .  S
C1089      C1094   1.425       .  A
C1089      H1096   1.080       .  S
C1090      C1091   1.444   1_554  A
C1091      C1098   1.518       .  S
C1091      C1092   1.408       .  A
C1092      C1093   1.385       .  A
C1092      H1097   1.082       .  S
C1094      C1095   1.506       .  S
C1095      F1099   1.384       .  S
C1095      F1100   1.372       .  S
C1095      F1101   1.379       .  S
C1098      F1102   1.375       .  S
C1098      F1103   1.363       .  S
C1098      F1104   1.385       .  S
C1105      C1106   1.429       .  A
C1105      C1110   1.420       .  A
C1105      H1112   1.081       .  S
C1106      C1107   1.449       .  A
C1107      C1114   1.529       .  S
C1107      C1108   1.398       .  A
C1108      C1109   1.408       .  A
C1108      H1113   1.077       .  S
C1109      C1110   1.437       .  A
C1110      C1111   1.521       .  S
C1111      F1115   1.383       .  S
C1111      F1116   1.371       .  S
C1111      F1117   1.369       .  S
C1114      F1118   1.376       .  S
C1114      F1119   1.370       .  S
C1114      F1120   1.384       .  S
C1121      C1338   1.616       .  S
C1121      C1637   1.613       .  S
C1121      C1650   1.596       .  S
C1121      C1386   1.601       .  S
C1122      C1290   1.600       .  S
C1122      C1309   1.622       .  S
C1122      C1325   1.594       .  S
C1122      C1389   1.589       .  S
C1123      C1226   1.584       .  S
C1123      C1245   1.612       .  S
C1123      C1258   1.607       .  S
C1123      C1277   1.602       .  S
C1124      C1178   1.610       .  S
C1124      C1197   1.616       .  S
C1124      C1210   1.598       .  S
C1124      C1274   1.594       .  S
C1125      O1420   1.268       .  A
C1125      O1127   1.261       .  A
C1125      C1373   1.491       .  S
Tb1126     O1988   2.372       .  S
Tb1126     O1692   2.361   1_545  S
Tb1126     O1422   2.373       .  S
Tb1126     O1137   2.384       .  S
Tb1126     O1410   2.384       .  S
Tb1126     O1150   2.348       .  S
Tb1126     O1147   2.364   1_545  S
O1127     Tb1131   2.353       .  S
O1128      C1139   1.264       .  A
O1128     Tb1691   2.385       .  S
C1129      O1134   1.259       .  A
C1129      O1150   1.267       .  A
C1129      C1229   1.471       .  S
O1130      C1146   1.261       .  A
O1130     Tb1406   2.384       .  S
Tb1131     O1688   2.385   1_545  S
Tb1131     O1415   2.420       .  S
Tb1131     O1420   2.390       .  S
Tb1131     O1981   2.380   1_545  S
Tb1131     O1143   2.413       .  S
Tb1131     O1693   2.336   1_545  S
O1132      C1698   1.258       .  A
O1132     Tb1686   2.361       .  S
O1133      C1136   1.269       .  A
O1133     Tb1691   2.336       .  S
O1135      C1145   1.290       .  A
O1135     Tb1411   2.420   1_554  S
C1136      O1149   1.276       .  A
C1136      C1354   1.482       .  S
C1138      O1692   1.258       .  A
C1138      O1147   1.263       .  A
C1138      C1802   1.476       .  S
C1139      O1421   1.262       .  A
C1139      C1261   1.502       .  S
O1140      C1405   1.268   1_554  A
O1140     Tb1411   2.390   1_554  S
O1141      C1419   1.262   1_554  A
O1141     Tb1971   2.380   1_554  S
O1142     Tb1406   2.373   1_554  S
O1143      C1144   1.290   1_655  A
C1144      C1171   1.522       .  S
C1145      C1170   1.517       .  S
C1146      O1708   1.265   1_556  A
C1146      C1341   1.506   1_556  S
O1148      C1706   1.265   1_554  A
O1148     Tb1966   2.372   1_554  S
C1151      O1166   1.263       .  A
C1151      O1153   1.259       .  A
C1151      C1322   1.491       .  S
Tb1152     O1734   2.394       .  S
Tb1152     O1718   2.372   1_545  S
Tb1152     O1168   2.432       .  S
Tb1152     O1163   2.400       .  S
Tb1152     O1156   2.333       .  S
Tb1152     O1176   2.377       .  S
Tb1152     O1173   2.406   1_545  S
O1153     Tb1157   2.315       .  S
O1154      C1165   1.263       .  A
O1154     Tb1717   2.377       .  S
C1155      O1160   1.272       .  A
C1155      O1176   1.277       .  A
C1155      C1181   1.513       .  S
O1156      C1172   1.252       .  A
Tb1157     O1714   2.377   1_545  S
Tb1157     O1161   2.355       .  S
Tb1157     O1166   2.413       .  S
Tb1157     O1727   2.329   1_545  S
Tb1157     O1169   2.386       .  S
Tb1157     O1719   2.379   1_545  S
O1158      C1164   1.262       .  A
O1158     Tb1712   2.372       .  S
O1159      C1162   1.277       .  A
O1159     Tb1717   2.379       .  S
O1161      C1171   1.273   1_655  A
C1162      O1175   1.274       .  A
C1162      C1306   1.523       .  S
C1164      O1733   1.259       .  A
C1164      C1194   1.512       .  S
C1165      O1167   1.257       .  A
C1165      C1213   1.481       .  S
O1167     Tb1717   2.329       .  S
O1169      C1170   1.278       .  A
C1172      O1734   1.265       .  A
C1172      C1293   1.479       .  S
O1173      C1724   1.259       .  A
O1174      C1732   1.265       .  A
O1174     Tb1712   2.394       .  S
C1177      C1178   1.401       .  A
C1177      C1182   1.420       .  A
C1177      H1184   1.076       .  S
C1178      C1179   1.426       .  A
C1179      C1186   1.515       .  S
C1179      C1180   1.414       .  A
C1180      C1181   1.404       .  A
C1180      H1185   1.084       .  S
C1181      C1182   1.430       .  A
C1182      C1183   1.502       .  S
C1183      F1187   1.378       .  S
C1183      F1189   1.382       .  S
C1186      F1190   1.375       .  S
C1186      F1191   1.370       .  S
C1186      F1192   1.385       .  S
C1193      C1194   1.383       .  A
C1193      C1198   1.411       .  A
C1193      H1200   1.084       .  S
C1194      C1195   1.415       .  A
C1195      C1762   1.518       .  S
C1195      C1196   1.428       .  A
C1196      C1197   1.432       .  A
C1196      H1201   1.058       .  S
C1197      C1198   1.456       .  A
C1198      C1199   1.521       .  S
C1199      F1203   1.371       .  S
C1199      F1204   1.357       .  S
C1199      F1205   1.382       .  S
C1202      C1755   1.518       .  S
C1202      F1206   1.379   1_565  S
C1202      F1207   1.383       .  S
C1202      F1208   1.383       .  S
C1209      C1210   1.417       .  A
C1209      C1214   1.424       .  A
C1209      H1216   1.081       .  S
C1210      C1211   1.434       .  A
C1211      C1218   1.515       .  S
C1211      C1212   1.384       .  A
C1212      C1213   1.387       .  A
C1212      H1217   1.084       .  S
C1213      C1214   1.419       .  A
C1214      C1775   1.509       .  S
C1215      C1774   1.509       .  S
C1215      F1219   1.376       .  S
C1215      F1220   1.382       .  S
C1215      F1221   1.378       .  S
C1218      F1222   1.382       .  S
C1218      F1223   1.360       .  S
C1218      F1224   1.377       .  S
C1225      C1226   1.413       .  A
C1225      C1230   1.391       .  A
C1225      H1232   1.057       .  S
C1226      C1507   1.440       .  A
C1227      C1234   1.517   1_556  S
C1227      C1506   1.440       .  A
C1227      C1228   1.419       .  A
C1228      C1509   1.401       .  A
C1228      H1233   1.084   1_556  S
C1229      C1508   1.401       .  A
C1229      C1230   1.407       .  A
C1230      C1231   1.521       .  S
C1231      F1235   1.385       .  S
C1231      F1236   1.379       .  S
C1231      F1237   1.380       .  S
C1234      F1238   1.378       .  S
C1234      F1239   1.379       .  S
C1234      F1240   1.385       .  S
C1241      C1242   1.390       .  A
C1241      C1246   1.413       .  A
C1241      H1248   1.085       .  S
C1242      C1698   1.476       .  S
C1242      C1243   1.400       .  A
C1243      C1810   1.505       .  S
C1243      C1244   1.400       .  A
C1244      C1245   1.419       .  A
C1244      H1249   1.066       .  S
C1245      C1246   1.448       .  A
C1246      C1247   1.515       .  S
C1247      F1251   1.386       .  S
C1247      F1252   1.373       .  S
C1247      F1253   1.370       .  S
C1250      C1803   1.505       .  S
C1250      F1534   1.372   1_565  S
C1250      F1255   1.383   1_565  S
C1250      F1256   1.379   1_565  S
F1254      C1530   1.372   1_545  S
C1257      C1258   1.410       .  A
C1257      C1262   1.417       .  A
C1257      H1264   1.077       .  S
C1258      C1259   1.429       .  A
C1259      C1266   1.515       .  S
C1259      C1260   1.409       .  A
C1260      C1261   1.400       .  A
C1260      H1265   1.086       .  S
C1261      C1262   1.426       .  A
C1262      C1543   1.508       .  S
C1263      C1542   1.508   1_554  S
C1263      F1827   1.377       .  S
C1263      F2108   1.377   1_554  S
C1263      F1269   1.377       .  S
C1266      F1270   1.373       .  S
C1266      F1271   1.369       .  S
C1266      F1272   1.387       .  S
F1267      C1823   1.377       .  S
F1268      C2103   1.377   1_545  S
C1273      C1274   1.406       .  A
C1273      C1278   1.414       .  A
C1273      H1280   1.074       .  S
C1274      C1275   1.444       .  A
C1275      C1282   1.530       .  S
C1275      C1276   1.412       .  A
C1276      C1277   1.401       .  A
C1276      H1281   1.060       .  S
C1277      C1278   1.425       .  A
C1278      C1279   1.502       .  S
C1279      F1283   1.383       .  S
C1279      F1284   1.358       .  S
C1279      F1285   1.356       .  S
C1282      F1286   1.379       .  S
C1282      F1287   1.373       .  S
C1282      F1288   1.380       .  S
C1289      C1290   1.398       .  A
C1289      C1294   1.419       .  A
C1289      H1296   1.075       .  S
C1290      C1291   1.432       .  A
C1291      C1298   1.513       .  S
C1291      C1292   1.400       .  A
C1292      C1293   1.395       .  A
C1292      H1857   1.084       .  S
C1293      C1294   1.412       .  A
C1294      C1295   1.478       .  S
C1295      F1299   1.378       .  S
C1295      F1300   1.382       .  S
C1295      F1301   1.381       .  S
H1297      C1852   1.084       .  S
C1298      F1302   1.382       .  S
C1298      F1303   1.371       .  S
C1298      F1864   1.378       .  S
F1304      C1858   1.378       .  S
C1305      C1306   1.401       .  A
C1305      C1310   1.425       .  A
C1305      H1312   1.081       .  S
C1306      C1307   1.411       .  A
C1307      C1314   1.507       .  S
C1307      C1308   1.415       .  A
C1308      C1309   1.428       .  A
C1308      H1313   1.059       .  S
C1309      C1310   1.446       .  A
C1310      C1311   1.512       .  S
C1311      F1315   1.379       .  S
C1311      F1316   1.375       .  S
C1311      F1317   1.375       .  S
C1314      F1318   1.375       .  S
C1314      F1319   1.383       .  S
C1314      F1320   1.384       .  S
C1321      C1322   1.386       .  A
C1321      C1326   1.387       .  A
C1321      H1328   1.086       .  S
C1322      C1323   1.417       .  A
C1323      C1330   1.509       .  S
C1323      C1324   1.429       .  A
C1324      C1325   1.416       .  A
C1324      H1329   1.076       .  S
C1325      C1326   1.447       .  A
C1326      C1327   1.519       .  S
C1327      F1331   1.378       .  S
C1327      F1332   1.356       .  S
C1327      F1333   1.383       .  S
C1330      F1334   1.381       .  S
C1330      F1335   1.382       .  S
C1330      F1336   1.384       .  S
C1337      C1618   1.425       .  A
C1337      C1342   1.425       .  A
C1337      H1344   1.069       .  S
C1338      C1617   1.425   1_554  A
C1338      C1339   1.449       .  A
C1339      C1346   1.501       .  S
C1339      C1340   1.405       .  A
C1340      C1341   1.385       .  A
C1340      H1345   1.086       .  S
C1341      C1622   1.416   1_554  A
C1342      C1343   1.505       .  S
C1342      C1621   1.416       .  A
C1343      F1347   1.383       .  S
C1343      F1348   1.380       .  S
C1343      F1349   1.383       .  S
C1346      F1350   1.363       .  S
C1346      F1351   1.363       .  S
C1346      F1352   1.381       .  S
C1353      C1634   1.386       .  A
C1353      C1358   1.413       .  A
C1353      H1360   1.084       .  S
C1354      C1633   1.386       .  A
C1354      C1355   1.402       .  A
C1355      C1362   1.516       .  S
C1355      C1356   1.413       .  A
C1356      C1357   1.426       .  A
C1356      H1361   1.070       .  S
C1357      C1401   1.613       .  S
C1357      C1638   1.463       .  A
C1358      C1359   1.531       .  S
C1358      C1637   1.463       .  A
C1359      F1363   1.387       .  S
C1359      F1364   1.371       .  S
C1359      F1365   1.375       .  S
C1362      F1366   1.384       .  S
C1362      F1367   1.382       .  S
C1362      F1368   1.382       .  S
C1369      C1650   1.421       .  A
C1369      C1374   1.425       .  A
C1369      H1376   1.080       .  S
C1370      C1401   1.596       .  S
C1370      C1649   1.421       .  A
C1370      C1371   1.444       .  A
C1371      C1378   1.518       .  S
C1371      C1372   1.408       .  A
C1372      C1373   1.385       .  A
C1372      H1377   1.082       .  S
C1373      C1654   1.411       .  A
C1374      C1375   1.506       .  S
C1374      C1653   1.411   1_554  A
C1375      F1379   1.384   1_655  S
C1375      F1380   1.372   1_654  S
C1375      F1381   1.379   1_655  S
C1378      F1382   1.375       .  S
C1378      F1383   1.363       .  S
C1378      F1384   1.385       .  S
C1385      C1386   1.429       .  A
C1385      C1390   1.420       .  A
C1385      H1392   1.081       .  S
C1386      C1387   1.449       .  A
C1387      C1394   1.529       .  S
C1387      C1388   1.398       .  A
C1388      C1389   1.408       .  A
C1388      H1393   1.077       .  S
C1389      C1390   1.437       .  A
C1390      C1391   1.521       .  S
C1391      F1395   1.383       .  S
C1391      F1396   1.371       .  S
C1391      F1397   1.369       .  S
C1394      F1398   1.376       .  S
C1394      F1399   1.370       .  S
C1394      F1400   1.384       .  S
C1401      C1618   1.616       .  S
C1401      C1666   1.601       .  S
C1402      C1570   1.600       .  S
C1402      C1589   1.622       .  S
C1402      C1605   1.594       .  S
C1402      C1669   1.589       .  S
C1403      C1506   1.584       .  S
C1403      C1525   1.612       .  S
C1403      C1538   1.607       .  S
C1403      C1557   1.602       .  S
C1404      C1458   1.610       .  S
C1404      C1477   1.616       .  S
C1404      C1490   1.598       .  S
C1404      C1554   1.594       .  S
C1405      O1407   1.261       .  A
C1405      C1653   1.491       .  S
Tb1406     O1708   2.372   1_556  S
Tb1406     O1972   2.361   1_546  S
Tb1406     O1417   2.384       .  S
Tb1406     O1430   2.348       .  S
Tb1406     O1427   2.364   1_545  S
O1407     Tb1411   2.353       .  S
O1408      C1419   1.264       .  A
O1408     Tb1971   2.385       .  S
C1409      O1414   1.259       .  A
C1409      O1430   1.267       .  A
C1409      C1509   1.471       .  S
O1410      C1426   1.261       .  A
Tb1411     O1968   2.385   1_545  S
Tb1411     O1701   2.380   1_546  S
Tb1411     O1423   2.413       .  S
Tb1411     O1973   2.336   1_545  S
O1412      C1978   1.258   1_554  A
O1412     Tb1966   2.361   1_554  S
O1413      C1416   1.269       .  A
O1413     Tb1971   2.336       .  S
O1415      C1425   1.290       .  A
C1416      O1429   1.276       .  A
C1416      C1634   1.482   1_556  S
C1418      O1972   1.258   1_556  A
C1418      O1427   1.263       .  A
C1418      C2082   1.476       .  S
C1419      C1541   1.502       .  S
O1421     Tb1691   2.380       .  S
O1423      C1424   1.290   1_655  A
C1424      C1451   1.522       .  S
C1425      C1450   1.517       .  S
C1426      O1988   1.265       .  A
C1426      C1621   1.506       .  S
O1428      C1986   1.265       .  A
O1428     Tb1686   2.372       .  S
C1431      O1446   1.263       .  A
C1431      O1433   1.259       .  A
C1431      C1602   1.491       .  S
Tb1432     O2014   2.394       .  S
Tb1432     O1998   2.372   1_545  S
Tb1432     O1448   2.432       .  S
Tb1432     O1443   2.400       .  S
Tb1432     O1436   2.333       .  S
Tb1432     O1456   2.377       .  S
Tb1432     O1453   2.406   1_545  S
O1433     Tb1437   2.315       .  S
O1434      C1445   1.263       .  A
O1434     Tb1997   2.377       .  S
C1435      O1440   1.272       .  A
C1435      O1456   1.277       .  A
C1435      C1461   1.513       .  S
O1436      C1452   1.252       .  A
Tb1437     O1994   2.377   1_545  S
Tb1437     O1441   2.355       .  S
Tb1437     O1446   2.413       .  S
Tb1437     O2007   2.329   1_545  S
Tb1437     O1449   2.386       .  S
Tb1437     O1999   2.379   1_545  S
O1438      C1444   1.262       .  A
O1438     Tb1992   2.372       .  S
O1439      C1442   1.277       .  A
O1439     Tb1997   2.379       .  S
O1441      C1451   1.273   1_655  A
C1442      O1455   1.274       .  A
C1442      C1586   1.523       .  S
C1444      O2013   1.259       .  A
C1444      C1474   1.512       .  S
C1445      O1447   1.257       .  A
C1445      C1493   1.481       .  S
O1447     Tb1997   2.329       .  S
O1449      C1450   1.278       .  A
C1452      O2014   1.265       .  A
C1452      C1573   1.479       .  S
O1453      C2004   1.259       .  A
O1454      C2012   1.265       .  A
O1454     Tb1992   2.394       .  S
C1457      C1458   1.401       .  A
C1457      C1462   1.420       .  A
C1457      H1464   1.076       .  S
C1458      C1459   1.426       .  A
C1459      C1466   1.515       .  S
C1459      C1460   1.414       .  A
C1460      C1461   1.404       .  A
C1460      H1465   1.084       .  S
C1461      C1462   1.430       .  A
C1462      C1463   1.502       .  S
C1463      F1467   1.378       .  S
C1463      F1469   1.382       .  S
C1466      F1470   1.375       .  S
C1466      F1471   1.370       .  S
C1466      F1472   1.385       .  S
C1473      C1474   1.383       .  A
C1473      C1478   1.411       .  A
C1473      H1480   1.084       .  S
C1474      C1475   1.415       .  A
C1475      C2042   1.518       .  S
C1475      C1476   1.428       .  A
C1476      C1477   1.432       .  A
C1476      H1481   1.058       .  S
C1477      C1478   1.456       .  A
C1478      C1479   1.521       .  S
C1479      F1483   1.371       .  S
C1479      F1484   1.357       .  S
C1479      F1485   1.382       .  S
C1482      C2035   1.518       .  S
C1482      F1486   1.379   1_565  S
C1482      F1487   1.383       .  S
C1482      F1488   1.383       .  S
C1489      C1490   1.417       .  A
C1489      C1494   1.424       .  A
C1489      H1496   1.081       .  S
C1490      C1491   1.434       .  A
C1491      C1498   1.515       .  S
C1491      C1492   1.384       .  A
C1492      C1493   1.387       .  A
C1492      H1497   1.084       .  S
C1493      C1494   1.419       .  A
C1494      C2055   1.509       .  S
C1495      C2054   1.509       .  S
C1495      F1499   1.376       .  S
C1495      F1500   1.382       .  S
C1495      F1501   1.378       .  S
C1498      F1502   1.382       .  S
C1498      F1503   1.360       .  S
C1498      F1504   1.377       .  S
C1505      C1506   1.413       .  A
C1505      C1510   1.391       .  A
C1505      H1512   1.057       .  S
C1507      C1514   1.517       .  S
C1507      C1508   1.419       .  A
C1508      H1513   1.084       .  S
C1509      C1510   1.407       .  A
C1510      C1511   1.521       .  S
C1511      F1515   1.385       .  S
C1511      F1516   1.379       .  S
C1511      F1517   1.380       .  S
C1514      F1518   1.378       .  S
C1514      F1519   1.379       .  S
C1514      F1520   1.385       .  S
C1521      C1522   1.390       .  A
C1521      C1526   1.413       .  A
C1521      H1528   1.085       .  S
C1522      C1978   1.476       .  S
C1522      C1523   1.400       .  A
C1523      C2090   1.505       .  S
C1523      C1524   1.400       .  A
C1524      C1525   1.419       .  A
C1524      H1529   1.066       .  S
C1525      C1526   1.448       .  A
C1526      C1527   1.515       .  S
C1527      F1531   1.386       .  S
C1527      F1532   1.373       .  S
C1527      F1533   1.370       .  S
C1530      C2083   1.505       .  S
C1530      F1535   1.383   1_565  S
C1530      F1536   1.379   1_565  S
C1537      C1538   1.410       .  A
C1537      C1542   1.417       .  A
C1537      H1544   1.077       .  S
C1538      C1539   1.429       .  A
C1539      C1546   1.515       .  S
C1539      C1540   1.409       .  A
C1540      C1541   1.400       .  A
C1540      H1545   1.086       .  S
C1541      C1542   1.426       .  A
C1543      F2107   1.377       .  S
C1543      F1828   1.377       .  S
C1543      F1549   1.377       .  S
C1546      F1550   1.373       .  S
C1546      F1551   1.369       .  S
C1546      F1552   1.387       .  S
F1547      C2103   1.377       .  S
F1548      C1823   1.377   1_546  S
C1553      C1554   1.406       .  A
C1553      C1558   1.414       .  A
C1553      H1560   1.074       .  S
C1554      C1555   1.444       .  A
C1555      C1562   1.530       .  S
C1555      C1556   1.412       .  A
C1556      C1557   1.401       .  A
C1556      H1561   1.060       .  S
C1557      C1558   1.425       .  A
C1558      C1559   1.502       .  S
C1559      F1563   1.383       .  S
C1559      F1564   1.358       .  S
C1559      F1565   1.356       .  S
C1562      F1566   1.379       .  S
C1562      F1567   1.373       .  S
C1562      F1568   1.380       .  S
C1569      C1570   1.398       .  A
C1569      C1574   1.419       .  A
C1569      H1576   1.075       .  S
C1570      C1571   1.432       .  A
C1571      C1578   1.513       .  S
C1571      C1572   1.400       .  A
C1572      C1573   1.395       .  A
C1572      H2137   1.084       .  S
C1573      C1574   1.412       .  A
C1574      C1575   1.478       .  S
C1575      F1579   1.378       .  S
C1575      F1580   1.382       .  S
C1575      F1581   1.381       .  S
H1577      C2132   1.084       .  S
C1578      F1582   1.382       .  S
C1578      F1583   1.371       .  S
C1578      F2144   1.378       .  S
F1584      C2138   1.378       .  S
C1585      C1586   1.401       .  A
C1585      C1590   1.425       .  A
C1585      H1592   1.081       .  S
C1586      C1587   1.411       .  A
C1587      C1594   1.507       .  S
C1587      C1588   1.415       .  A
C1588      C1589   1.428       .  A
C1588      H1593   1.059       .  S
C1589      C1590   1.446       .  A
C1590      C1591   1.512       .  S
C1591      F1595   1.379       .  S
C1591      F1596   1.375       .  S
C1591      F1597   1.375       .  S
C1594      F1598   1.375       .  S
C1594      F1599   1.383       .  S
C1594      F1600   1.384       .  S
C1601      C1602   1.386       .  A
C1601      C1606   1.387       .  A
C1601      H1608   1.086       .  S
C1602      C1603   1.417       .  A
C1603      C1610   1.509       .  S
C1603      C1604   1.429       .  A
C1604      C1605   1.416       .  A
C1604      H1609   1.076       .  S
C1605      C1606   1.447       .  A
C1606      C1607   1.519       .  S
C1607      F1611   1.378       .  S
C1607      F1612   1.356       .  S
C1607      F1613   1.383       .  S
C1610      F1614   1.381       .  S
C1610      F1615   1.382       .  S
C1610      F1616   1.384       .  S
C1617      C1622   1.425       .  A
C1617      H1624   1.069       .  S
C1618      C1619   1.449       .  A
C1619      C1626   1.501       .  S
C1619      C1620   1.405       .  A
C1620      C1621   1.385       .  A
C1620      H1625   1.086       .  S
C1622      C1623   1.505       .  S
C1623      F1627   1.383       .  S
C1623      F1628   1.380       .  S
C1623      F1629   1.383       .  S
C1626      F1630   1.363       .  S
C1626      F1631   1.363       .  S
C1626      F1632   1.381       .  S
C1633      C1638   1.413       .  A
C1633      H1640   1.084       .  S
C1634      C1635   1.402   1_554  A
C1635      C1642   1.516       .  S
C1635      C1636   1.413       .  A
C1636      C1637   1.426   1_556  A
C1636      H1641   1.070       .  S
C1638      C1639   1.531       .  S
C1639      F1643   1.387       .  S
C1639      F1644   1.371       .  S
C1639      F1645   1.375       .  S
C1642      F1646   1.384       .  S
C1642      F1647   1.382       .  S
C1642      F1648   1.382       .  S
C1649      C1654   1.425       .  A
C1649      H1656   1.080       .  S
C1650      C1651   1.444   1_554  A
C1651      C1658   1.518       .  S
C1651      C1652   1.408       .  A
C1652      C1653   1.385       .  A
C1652      H1657   1.082       .  S
C1654      C1655   1.506       .  S
C1655      F1659   1.384   1_655  S
C1655      F1660   1.372   1_655  S
C1655      F1661   1.379   1_655  S
C1658      F1662   1.375       .  S
C1658      F1663   1.363       .  S
C1658      F1664   1.385       .  S
C1665      C1666   1.429       .  A
C1665      C1670   1.420       .  A
C1665      H1672   1.081       .  S
C1666      C1667   1.449       .  A
C1667      C1674   1.529       .  S
C1667      C1668   1.398       .  A
C1668      C1669   1.408       .  A
C1668      H1673   1.077       .  S
C1669      C1670   1.437       .  A
C1670      C1671   1.521       .  S
C1671      F1675   1.383       .  S
C1671      F1676   1.371       .  S
C1671      F1677   1.369       .  S
C1674      F1678   1.376       .  S
C1674      F1679   1.370       .  S
C1674      F1680   1.384       .  S
C1681      C1898   1.616       .  S
C1681      C2197   1.613       .  S
C1681      C2210   1.596       .  S
C1681      C1946   1.601       .  S
C1682      C1850   1.600       .  S
C1682      C1869   1.622       .  S
C1682      C1885   1.594       .  S
C1682      C1949   1.589       .  S
C1683      C1786   1.584       .  S
C1683      C1805   1.612       .  S
C1683      C1818   1.607       .  S
C1683      C1837   1.602       .  S
C1684      C1738   1.610       .  S
C1684      C1757   1.616       .  S
C1684      C1770   1.598       .  S
C1684      C1834   1.594       .  S
C1685      O1980   1.268       .  A
C1685      O1687   1.261       .  A
C1685      C1933   1.491       .  S
Tb1686     O1982   2.373       .  S
Tb1686     O1697   2.384       .  S
Tb1686     O1970   2.384       .  S
Tb1686     O1710   2.348       .  S
Tb1686     O1707   2.364       .  S
O1687     Tb1691   2.353       .  S
O1688      C1699   1.264       .  A
C1689      O1694   1.259       .  A
C1689      O1710   1.267       .  A
C1689      C1789   1.471       .  S
O1690      C1706   1.261       .  A
O1690     Tb1966   2.384       .  S
Tb1691     O1975   2.420       .  S
Tb1691     O1980   2.390       .  S
Tb1691     O1703   2.413       .  S
O1693      C1696   1.269       .  A
O1695      C1705   1.290       .  A
O1695     Tb1971   2.420   1_554  S
C1696      O1709   1.276       .  A
C1696      C1914   1.482       .  S
C1698      O1707   1.263       .  A
C1699      O1981   1.262       .  A
C1699      C1821   1.502       .  S
O1700      C1965   1.268   1_554  A
O1700     Tb1971   2.390   1_554  S
O1701      C1979   1.262   1_554  A
O1702     Tb1966   2.373   1_554  S
O1703      C1704   1.290   1_655  A
C1704      C1731   1.522       .  S
C1705      C1730   1.517       .  S
C1706      C1901   1.506   1_556  S
C1711      O1726   1.263       .  A
C1711      O1713   1.259       .  A
C1711      C1882   1.491       .  S
Tb1712     O1728   2.432       .  S
Tb1712     O1723   2.400       .  S
Tb1712     O1716   2.333       .  S
Tb1712     O1736   2.377       .  S
Tb1712     O1733   2.406       .  S
O1713     Tb1717   2.315       .  S
O1714      C1725   1.263       .  A
C1715      O1720   1.272       .  A
C1715      O1736   1.277       .  A
C1715      C1741   1.513       .  S
O1716      C1732   1.252       .  A
Tb1717     O1721   2.355       .  S
Tb1717     O1726   2.413       .  S
Tb1717     O1729   2.386       .  S
O1718      C1724   1.262       .  A
O1719      C1722   1.277       .  A
O1721      C1731   1.273   1_655  A
C1722      O1735   1.274       .  A
C1722      C1866   1.523       .  S
C1724      C1754   1.512       .  S
C1725      O1727   1.257       .  A
C1725      C1773   1.481       .  S
O1729      C1730   1.278       .  A
C1732      C1853   1.479       .  S
C1737      C1738   1.401       .  A
C1737      C1742   1.420       .  A
C1737      H1744   1.076       .  S
C1738      C1739   1.426       .  A
C1739      C1746   1.515       .  S
C1739      C1740   1.414       .  A
C1740      C1741   1.404       .  A
C1740      H1745   1.084       .  S
C1741      C1742   1.430       .  A
C1742      C1743   1.502       .  S
C1743      F1747   1.378       .  S
C1743      F1749   1.382       .  S
C1746      F1750   1.375       .  S
C1746      F1751   1.370       .  S
C1746      F1752   1.385       .  S
C1753      C1754   1.383       .  A
C1753      C1758   1.411       .  A
C1753      H1760   1.084       .  S
C1754      C1755   1.415       .  A
C1755      C1756   1.428       .  A
C1756      C1757   1.432       .  A
C1756      H1761   1.058       .  S
C1757      C1758   1.456       .  A
C1758      C1759   1.521       .  S
C1759      F1763   1.371       .  S
C1759      F1764   1.357       .  S
C1759      F1765   1.382       .  S
C1762      F1766   1.379       .  S
C1762      F1767   1.383       .  S
C1762      F1768   1.383       .  S
C1769      C1770   1.417       .  A
C1769      C1774   1.424       .  A
C1769      H1776   1.081       .  S
C1770      C1771   1.434       .  A
C1771      C1778   1.515       .  S
C1771      C1772   1.384       .  A
C1772      C1773   1.387       .  A
C1772      H1777   1.084       .  S
C1773      C1774   1.419       .  A
C1775      F1779   1.376       .  S
C1775      F1780   1.382       .  S
C1775      F1781   1.378       .  S
C1778      F1782   1.382       .  S
C1778      F1783   1.360       .  S
C1778      F1784   1.377       .  S
C1785      C1786   1.413       .  A
C1785      C1790   1.391       .  A
C1785      H1792   1.057       .  S
C1786      C2067   1.440       .  A
C1787      C1794   1.517   1_556  S
C1787      C2066   1.440       .  A
C1787      C1788   1.419       .  A
C1788      C2069   1.401       .  A
C1788      H1793   1.084   1_556  S
C1789      C2068   1.401       .  A
C1789      C1790   1.407       .  A
C1790      C1791   1.521       .  S
C1791      F1795   1.385       .  S
C1791      F1796   1.379       .  S
C1791      F1797   1.380       .  S
C1794      F1798   1.378       .  S
C1794      F1799   1.379       .  S
C1794      F1800   1.385       .  S
C1801      C1802   1.390       .  A
C1801      C1806   1.413       .  A
C1801      H1808   1.085       .  S
C1802      C1803   1.400       .  A
C1803      C1804   1.400       .  A
C1804      C1805   1.419       .  A
C1804      H1809   1.066       .  S
C1805      C1806   1.448       .  A
C1806      C1807   1.515       .  S
C1807      F1811   1.386       .  S
C1807      F1812   1.373       .  S
C1807      F1813   1.370       .  S
C1810      F2094   1.372       .  S
C1810      F1815   1.383       .  S
C1810      F1816   1.379       .  S
F1814      C2090   1.372       .  S
C1817      C1818   1.410       .  A
C1817      C1822   1.417       .  A
C1817      H1824   1.077       .  S
C1818      C1819   1.429       .  A
C1819      C1826   1.515       .  S
C1819      C1820   1.409       .  A
C1820      C1821   1.400       .  A
C1820      H1825   1.086       .  S
C1821      C1822   1.426       .  A
C1822      C2103   1.508       .  S
C1823      C2102   1.508   1_554  S
C1823      F1829   1.377   1_565  S
C1826      F1830   1.373       .  S
C1826      F1831   1.369       .  S
C1826      F1832   1.387       .  S
C1833      C1834   1.406       .  A
C1833      C1838   1.414       .  A
C1833      H1840   1.074       .  S
C1834      C1835   1.444       .  A
C1835      C1842   1.530       .  S
C1835      C1836   1.412       .  A
C1836      C1837   1.401       .  A
C1836      H1841   1.060       .  S
C1837      C1838   1.425       .  A
C1838      C1839   1.502       .  S
C1839      F1843   1.383       .  S
C1839      F1844   1.358       .  S
C1839      F1845   1.356       .  S
C1842      F1846   1.379       .  S
C1842      F1847   1.373       .  S
C1842      F1848   1.380       .  S
C1849      C1850   1.398       .  A
C1849      C1854   1.419       .  A
C1849      H1856   1.075       .  S
C1850      C1851   1.432       .  A
C1851      C1858   1.513       .  S
C1851      C1852   1.400       .  A
C1852      C1853   1.395       .  A
C1853      C1854   1.412       .  A
C1854      C1855   1.478       .  S
C1855      F1859   1.378       .  S
C1855      F1860   1.382       .  S
C1855      F1861   1.381       .  S
C1858      F1862   1.382       .  S
C1858      F1863   1.371       .  S
C1865      C1866   1.401       .  A
C1865      C1870   1.425       .  A
C1865      H1872   1.081       .  S
C1866      C1867   1.411       .  A
C1867      C1874   1.507       .  S
C1867      C1868   1.414       .  A
C1868      C1869   1.428       .  A
C1868      H1873   1.059       .  S
C1869      C1870   1.446       .  A
C1870      C1871   1.512       .  S
C1871      F1875   1.379       .  S
C1871      F1876   1.375       .  S
C1871      F1877   1.375       .  S
C1874      F1878   1.375       .  S
C1874      F1879   1.383       .  S
C1874      F1880   1.384       .  S
C1881      C1882   1.386       .  A
C1881      C1886   1.387       .  A
C1881      H1888   1.086       .  S
C1882      C1883   1.417       .  A
C1883      C1890   1.509       .  S
C1883      C1884   1.429       .  A
C1884      C1885   1.416       .  A
C1884      H1889   1.076       .  S
C1885      C1886   1.447       .  A
C1886      C1887   1.519       .  S
C1887      F1891   1.378       .  S
C1887      F1892   1.356       .  S
C1887      F1893   1.383       .  S
C1890      F1894   1.381       .  S
C1890      F1895   1.382       .  S
C1890      F1896   1.384       .  S
C1897      C2178   1.425       .  A
C1897      C1902   1.425       .  A
C1897      H1904   1.069       .  S
C1898      C2177   1.425   1_554  A
C1898      C1899   1.449       .  A
C1899      C1906   1.501       .  S
C1899      C1900   1.405       .  A
C1900      C1901   1.385       .  A
C1900      H1905   1.086       .  S
C1901      C2182   1.416   1_554  A
C1902      C1903   1.505       .  S
C1902      C2181   1.416       .  A
C1903      F1907   1.383       .  S
C1903      F1908   1.380       .  S
C1903      F1909   1.383       .  S
C1906      F1910   1.363       .  S
C1906      F1911   1.363       .  S
C1906      F1912   1.381       .  S
C1913      C2194   1.386       .  A
C1913      C1918   1.413       .  A
C1913      H1920   1.084       .  S
C1914      C2193   1.386       .  A
C1914      C1915   1.402       .  A
C1915      C1922   1.516       .  S
C1915      C1916   1.413       .  A
C1916      C1917   1.426       .  A
C1916      H1921   1.070       .  S
C1917      C1961   1.613       .  S
C1917      C2198   1.463       .  A
C1918      C1919   1.531       .  S
C1918      C2197   1.463       .  A
C1919      F1923   1.387       .  S
C1919      F1924   1.371       .  S
C1919      F1925   1.375       .  S
C1922      F1926   1.384       .  S
C1922      F1927   1.382       .  S
C1922      F1928   1.382       .  S
C1929      C2210   1.421       .  A
C1929      C1934   1.425       .  A
C1929      H1936   1.080       .  S
C1930      C1961   1.596       .  S
C1930      C2209   1.421       .  A
C1930      C1931   1.444       .  A
C1931      C1938   1.518       .  S
C1931      C1932   1.408       .  A
C1932      C1933   1.385       .  A
C1932      H1937   1.082       .  S
C1933      C2214   1.411       .  A
C1934      C1935   1.506       .  S
C1934      C2213   1.411   1_554  A
C1935      F1939   1.384   1_655  S
C1935      F1940   1.372   1_654  S
C1935      F1941   1.379   1_655  S
C1938      F1942   1.375       .  S
C1938      F1943   1.363       .  S
C1938      F1944   1.385       .  S
C1945      C1946   1.429       .  A
C1945      C1950   1.420       .  A
C1945      H1952   1.081       .  S
C1946      C1947   1.449       .  A
C1947      C1954   1.529       .  S
C1947      C1948   1.398       .  A
C1948      C1949   1.408       .  A
C1948      H1953   1.077       .  S
C1949      C1950   1.437       .  A
C1950      C1951   1.521       .  S
C1951      F1955   1.383       .  S
C1951      F1956   1.371       .  S
C1951      F1957   1.369       .  S
C1954      F1958   1.376       .  S
C1954      F1959   1.370       .  S
C1954      F1960   1.384       .  S
C1961      C2178   1.616       .  S
C1961      C2226   1.601       .  S
C1962      C2130   1.600       .  S
C1962      C2149   1.622       .  S
C1962      C2165   1.594       .  S
C1962      C2229   1.589       .  S
C1963      C2066   1.584       .  S
C1963      C2085   1.612       .  S
C1963      C2098   1.607       .  S
C1963      C2117   1.602       .  S
C1964      C2018   1.610       .  S
C1964      C2037   1.616       .  S
C1964      C2050   1.598       .  S
C1964      C2114   1.594       .  S
C1965      O1967   1.261       .  A
C1965      C2213   1.491       .  S
Tb1966     O1977   2.384       .  S
Tb1966     O1990   2.348       .  S
Tb1966     O1987   2.364       .  S
O1967     Tb1971   2.353       .  S
O1968      C1979   1.264       .  A
C1969      O1974   1.259       .  A
C1969      O1990   1.267       .  A
C1969      C2069   1.471       .  S
O1970      C1986   1.261       .  A
Tb1971     O1983   2.413       .  S
O1973      C1976   1.269       .  A
O1975      C1985   1.290       .  A
C1976      O1989   1.276       .  A
C1976      C2194   1.482   1_556  S
C1978      O1987   1.263       .  A
C1979      C2101   1.502       .  S
O1983      C1984   1.290   1_655  A
C1984      C2011   1.522       .  S
C1985      C2010   1.517       .  S
C1986      C2181   1.506       .  S
C1991      O2006   1.263       .  A
C1991      O1993   1.259       .  A
C1991      C2162   1.491       .  S
Tb1992     O2008   2.432       .  S
Tb1992     O2003   2.400       .  S
Tb1992     O1996   2.333       .  S
Tb1992     O2016   2.377       .  S
Tb1992     O2013   2.406       .  S
O1993     Tb1997   2.315       .  S
O1994      C2005   1.263       .  A
C1995      O2000   1.272       .  A
C1995      O2016   1.277       .  A
C1995      C2021   1.513       .  S
O1996      C2012   1.252       .  A
Tb1997     O2001   2.355       .  S
Tb1997     O2006   2.413       .  S
Tb1997     O2009   2.386       .  S
O1998      C2004   1.262       .  A
O1999      C2002   1.277       .  A
O2001      C2011   1.273   1_655  A
C2002      O2015   1.274       .  A
C2002      C2146   1.523       .  S
C2004      C2034   1.512       .  S
C2005      O2007   1.257       .  A
C2005      C2053   1.481       .  S
O2009      C2010   1.278       .  A
C2012      C2133   1.479       .  S
C2017      C2018   1.401       .  A
C2017      C2022   1.420       .  A
C2017      H2024   1.076       .  S
C2018      C2019   1.426       .  A
C2019      C2026   1.515       .  S
C2019      C2020   1.414       .  A
C2020      C2021   1.404       .  A
C2020      H2025   1.084       .  S
C2021      C2022   1.430       .  A
C2022      C2023   1.502       .  S
C2023      F2027   1.378       .  S
C2023      F2029   1.382       .  S
C2026      F2030   1.375       .  S
C2026      F2031   1.370       .  S
C2026      F2032   1.385       .  S
C2033      C2034   1.383       .  A
C2033      C2038   1.411       .  A
C2033      H2040   1.084       .  S
C2034      C2035   1.415       .  A
C2035      C2036   1.428       .  A
C2036      C2037   1.432       .  A
C2036      H2041   1.058       .  S
C2037      C2038   1.456       .  A
C2038      C2039   1.521       .  S
C2039      F2043   1.371       .  S
C2039      F2044   1.357       .  S
C2039      F2045   1.382       .  S
C2042      F2046   1.379       .  S
C2042      F2047   1.383       .  S
C2042      F2048   1.383       .  S
C2049      C2050   1.417       .  A
C2049      C2054   1.424       .  A
C2049      H2056   1.081       .  S
C2050      C2051   1.434       .  A
C2051      C2058   1.515       .  S
C2051      C2052   1.384       .  A
C2052      C2053   1.387       .  A
C2052      H2057   1.084       .  S
C2053      C2054   1.419       .  A
C2055      F2059   1.376       .  S
C2055      F2060   1.382       .  S
C2055      F2061   1.378       .  S
C2058      F2062   1.382       .  S
C2058      F2063   1.360       .  S
C2058      F2064   1.377       .  S
C2065      C2066   1.413       .  A
C2065      C2070   1.391       .  A
C2065      H2072   1.057       .  S
C2067      C2074   1.517       .  S
C2067      C2068   1.419       .  A
C2068      H2073   1.084       .  S
C2069      C2070   1.407       .  A
C2070      C2071   1.521       .  S
C2071      F2075   1.385       .  S
C2071      F2076   1.379       .  S
C2071      F2077   1.380       .  S
C2074      F2078   1.378       .  S
C2074      F2079   1.379       .  S
C2074      F2080   1.385       .  S
C2081      C2082   1.390       .  A
C2081      C2086   1.413       .  A
C2081      H2088   1.085       .  S
C2082      C2083   1.400       .  A
C2083      C2084   1.400       .  A
C2084      C2085   1.419       .  A
C2084      H2089   1.066       .  S
C2085      C2086   1.448       .  A
C2086      C2087   1.515       .  S
C2087      F2091   1.386       .  S
C2087      F2092   1.373       .  S
C2087      F2093   1.370       .  S
C2090      F2095   1.383       .  S
C2090      F2096   1.379       .  S
C2097      C2098   1.410       .  A
C2097      C2102   1.417       .  A
C2097      H2104   1.077       .  S
C2098      C2099   1.429       .  A
C2099      C2106   1.515       .  S
C2099      C2100   1.409       .  A
C2100      C2101   1.400       .  A
C2100      H2105   1.086       .  S
C2101      C2102   1.426       .  A
C2103      F2109   1.377   1_565  S
C2106      F2110   1.373       .  S
C2106      F2111   1.369       .  S
C2106      F2112   1.387       .  S
C2113      C2114   1.406       .  A
C2113      C2118   1.414       .  A
C2113      H2120   1.074       .  S
C2114      C2115   1.444       .  A
C2115      C2122   1.530       .  S
C2115      C2116   1.412       .  A
C2116      C2117   1.401       .  A
C2116      H2121   1.060       .  S
C2117      C2118   1.425       .  A
C2118      C2119   1.502       .  S
C2119      F2123   1.383       .  S
C2119      F2124   1.358       .  S
C2119      F2125   1.356       .  S
C2122      F2126   1.379       .  S
C2122      F2127   1.373       .  S
C2122      F2128   1.380       .  S
C2129      C2130   1.398       .  A
C2129      C2134   1.419       .  A
C2129      H2136   1.075       .  S
C2130      C2131   1.432       .  A
C2131      C2138   1.513       .  S
C2131      C2132   1.400       .  A
C2132      C2133   1.395       .  A
C2133      C2134   1.412       .  A
C2134      C2135   1.478       .  S
C2135      F2139   1.378       .  S
C2135      F2140   1.382       .  S
C2135      F2141   1.381       .  S
C2138      F2142   1.382       .  S
C2138      F2143   1.371       .  S
C2145      C2146   1.401       .  A
C2145      C2150   1.425       .  A
C2145      H2152   1.081       .  S
C2146      C2147   1.411       .  A
C2147      C2154   1.507       .  S
C2147      C2148   1.414       .  A
C2148      C2149   1.428       .  A
C2148      H2153   1.059       .  S
C2149      C2150   1.446       .  A
C2150      C2151   1.512       .  S
C2151      F2155   1.379       .  S
C2151      F2156   1.375       .  S
C2151      F2157   1.375       .  S
C2154      F2158   1.375       .  S
C2154      F2159   1.383       .  S
C2154      F2160   1.384       .  S
C2161      C2162   1.386       .  A
C2161      C2166   1.387       .  A
C2161      H2168   1.086       .  S
C2162      C2163   1.417       .  A
C2163      C2170   1.509       .  S
C2163      C2164   1.429       .  A
C2164      C2165   1.416       .  A
C2164      H2169   1.076       .  S
C2165      C2166   1.447       .  A
C2166      C2167   1.519       .  S
C2167      F2171   1.378       .  S
C2167      F2172   1.356       .  S
C2167      F2173   1.383       .  S
C2170      F2174   1.381       .  S
C2170      F2175   1.382       .  S
C2170      F2176   1.384       .  S
C2177      C2182   1.425       .  A
C2177      H2184   1.069       .  S
C2178      C2179   1.449       .  A
C2179      C2186   1.501       .  S
C2179      C2180   1.405       .  A
C2180      C2181   1.385       .  A
C2180      H2185   1.086       .  S
C2182      C2183   1.505       .  S
C2183      F2187   1.383       .  S
C2183      F2188   1.380       .  S
C2183      F2189   1.383       .  S
C2186      F2190   1.363       .  S
C2186      F2191   1.363       .  S
C2186      F2192   1.381       .  S
C2193      C2198   1.413       .  A
C2193      H2200   1.084       .  S
C2194      C2195   1.402   1_554  A
C2195      C2202   1.516       .  S
C2195      C2196   1.413       .  A
C2196      C2197   1.426   1_556  A
C2196      H2201   1.070       .  S
C2198      C2199   1.531       .  S
C2199      F2203   1.387       .  S
C2199      F2204   1.371       .  S
C2199      F2205   1.375       .  S
C2202      F2206   1.384       .  S
C2202      F2207   1.382       .  S
C2202      F2208   1.382       .  S
C2209      C2214   1.425       .  A
C2209      H2216   1.080       .  S
C2210      C2211   1.444   1_554  A
C2211      C2218   1.518       .  S
C2211      C2212   1.408       .  A
C2212      C2213   1.385       .  A
C2212      H2217   1.082       .  S
C2214      C2215   1.506       .  S
C2215      F2219   1.384   1_655  S
C2215      F2220   1.372   1_655  S
C2215      F2221   1.379   1_655  S
C2218      F2222   1.375       .  S
C2218      F2223   1.363       .  S
C2218      F2224   1.385       .  S
C2225      C2226   1.429       .  A
C2225      C2230   1.420       .  A
C2225      H2232   1.081       .  S
C2226      C2227   1.449       .  A
C2227      C2234   1.529       .  S
C2227      C2228   1.398       .  A
C2228      C2229   1.408       .  A
C2228      H2233   1.077       .  S
C2229      C2230   1.437       .  A
C2230      C2231   1.521       .  S
C2231      F2235   1.383       .  S
C2231      F2236   1.371       .  S
C2231      F2237   1.369       .  S
C2234      F2238   1.376       .  S
C2234      F2239   1.370       .  S
C2234      F2240   1.384       .  S
