geometry optimzed in LAMMPS
_audit_creation_date              2020-11-30 
_audit_creation_method            'lammps2cif' 
_symmetry_space_group_name_H-M    'P1' 
_symmetry_Int_Tables_number       1 
_symmetry_cell_setting            triclinic 
loop_ 
_symmetry_equiv_pos_as_xyz 
  x,y,z 
_cell_length_a                    43.79918414 
_cell_length_b                    43.15931495614161 
_cell_length_c                    33.763187822287435 
_cell_angle_alpha                 81.82047576008343 
_cell_angle_beta                  83.04630394976903 
_cell_angle_gamma                 89.23045324427049 
loop_ 
_atom_site_label 
_atom_site_type_symbol 
_atom_site_fract_x 
_atom_site_fract_y 
_atom_site_fract_z 
_atom_site_charge 
N1          N  0.63341781  0.78205856  0.26628044    -0.02800
C2          C  0.60207018  0.78311215  0.26926066    -0.00200
C3          C  0.58993259  0.79372352  0.30454007    -0.23100
C4          C  0.61407246  0.79833965  0.32504599    -0.23300
C5          C  0.64052783  0.79133561  0.30132927    -0.00300
H6          H  0.56592481  0.79437680  0.31624642     0.13400
H7          H  0.61239785  0.80425414  0.35517846     0.13500
N8          N  0.78632176  0.80902693  0.51578411    -0.02800
C9          C  0.81080235  0.82667708  0.51979815    -0.00200
C10         C  0.83769363  0.81373635  0.50397644    -0.23100
C11         C  0.82932635  0.78773904  0.48846382    -0.23300
C12         C  0.79743640  0.78695356  0.49263474    -0.00300
H13         H  0.86054176  0.82387005  0.50029117     0.11800
H14         H  0.84475975  0.77381167  0.47074914     0.13500
N15         N  0.61542714  0.43879033  0.36843227    -0.02800
C16         C  0.60774329  0.46917807  0.35717095    -0.00200
C17         C  0.61903426  0.48825529  0.38152639    -0.23100
C18         C  0.63418200  0.46909530  0.40878507    -0.23300
C19         C  0.63111986  0.43869227  0.40093477    -0.00300
H20         H  0.61488622  0.51309256  0.38126045     0.13400
H21         H  0.64344491  0.47613023  0.43444080     0.13500
N22         N  0.64132905  0.27716829  0.14309884    -0.02800
C23         C  0.64699652  0.24661182  0.13935342    -0.00200
C24         C  0.63192816  0.22736047  0.17168297    -0.23100
C25         C  0.61660585  0.24672574  0.19645364    -0.23300
C26         C  0.62345335  0.27732680  0.17906037    -0.00300
H27         H  0.63388088  0.20220035  0.17816409     0.13400
H28         H  0.60486173  0.23932709  0.22619656     0.13500
N29         N  0.17383299  0.80930977  0.36417880    -0.02800
C30         C  0.17736904  0.77808690  0.36205793    -0.00200
C31         C  0.16229486  0.76062969  0.39600049    -0.23100
C32         C  0.14918229  0.78154773  0.42004689    -0.23300
C33         C  0.15718415  0.81131462  0.40062411    -0.00300
H34         H  0.16269985  0.73538114  0.40376395     0.13400
H35         H  0.13796017  0.77562944  0.45054551     0.13500
N36         N  0.14324926  0.97067045  0.09221032    -0.02800
C37         C  0.13367666  0.00052859  0.08111750    -0.00200
C38         C  0.14682317  0.02099427  0.10208056    -0.23100
C39         C  0.16481846  0.00335050  0.12723620    -0.23300
C40         C  0.16149754  0.97238678  0.12186515    -0.00300
H41         H  0.14185731  0.04566673  0.10157135     0.13400
H42         H  0.17584716  0.01168600  0.15069320     0.13500
O43         O  0.89652135  0.14028845  0.05618997    -0.73800
O44         O  0.85922200  0.06177011  0.05300705    -0.73800
O45         O  0.91770557  0.08284675  0.04829581    -0.73900
O46         O  0.83831999  0.12057468  0.05975975    -0.73900
O47         O  0.83957703  0.12962456  0.99304910    -0.73900
O48         O  0.92127974  0.09613719  0.98169897    -0.73800
O49         O  0.86309647  0.07091464  0.48619735    -0.73800
O50         O  0.89725494  0.15312026  0.98984543    -0.73900
Ni51       Ni  0.87772647  0.10086334  0.05658813     1.25400
Ni52       Ni  0.88030948  0.11286645  0.98509914     1.25400
C53         C  0.90312597  0.15968194  0.02406785     0.88400
C54         C  0.85581464  0.05331602  0.01906978     0.88300
C55         C  0.93339906  0.08511361  0.01339931     0.88400
C56         C  0.82606634  0.13198490  0.02830605     0.88500
O57         O  0.36070133  0.57855281  0.28070618    -0.73800
O58         O  0.41500848  0.64936537  0.26089803    -0.73800
O59         O  0.35317649  0.64101935  0.27117908    -0.73900
O60         O  0.42188087  0.58713686  0.27239041    -0.73900
O61         O  0.42526725  0.58800672  0.20578628    -0.73900
O62         O  0.35262335  0.64026161  0.20533506    -0.73800
O63         O  0.41500747  0.65024261  0.19470220    -0.73800
O64         O  0.36389335  0.57731400  0.21468293    -0.73900
Ni65       Ni  0.38751514  0.61412738  0.27353824     1.25400
Ni66       Ni  0.38904855  0.61406194  0.20263066     1.25400
C67         C  0.35449609  0.56537485  0.25090678     0.88400
C68         C  0.42508763  0.66045768  0.22442871     0.88300
C69         C  0.34094637  0.64889082  0.23884652     0.88400
C70         C  0.43567918  0.57961629  0.23966176     0.88500
N71         N  0.06798561  0.30037842  0.13666996    -0.02800
C72         C  0.03694923  0.29530084  0.13950007    -0.00200
C73         C  0.02258513  0.30126562  0.17628310    -0.23100
C74         C  0.04497121  0.31071307  0.19689062    -0.23300
C75         C  0.07265713  0.30964079  0.17261597    -0.00300
H76         H  0.99841226  0.29799504  0.18751734     0.13400
H77         H  0.04172794  0.31606026  0.22745813     0.13500
N78         N  0.22602634  0.34761877  0.35786194    -0.02800
C79         C  0.25513320  0.35947495  0.34746178    -0.00200
C80         C  0.27468643  0.34552568  0.37381355    -0.23100
C81         C  0.25725918  0.32480993  0.40177510    -0.23300
C82         C  0.22724615  0.32750110  0.39275325    -0.00300
H83         H  0.29827042  0.35181944  0.37480052     0.13400
H84         H  0.26480815  0.31261743  0.42921763     0.13500
C85         C  0.20120125  0.32181255  0.42586164     0.02000
C86         C  0.20042803  0.33812380  0.45970137     0.04800
C87         C  0.17703972  0.33127633  0.99261004    -0.11300
C88         C  0.15354890  0.30967749  0.99143861     0.24100
C89         C  0.15410110  0.29405045  0.45759698    -0.11800
C90         C  0.17819417  0.29928129  0.42547145     0.05500
C91         C  0.12924514  0.30394080  0.02655489     0.27900
C92         C  0.13402420  0.28166453  0.05992592    -0.12500
C93         C  0.11453772  0.28069164  0.09663881     0.06000
C94         C  0.08948348  0.30169072  0.10002586    -0.08500
C95         C  0.08509673  0.32406468  0.06619550     0.06800
C96         C  0.10440142  0.32472269  0.02957856    -0.12800
Br97       Br  0.12139328  0.26508282  0.45576321    -0.04900
Br98       Br  0.23082863  0.36959143  0.46250794     0.00700
Br99       Br  0.12398330  0.25147101  0.14186141     0.01200
Br100      Br  0.09793300  0.35521404  0.98364582    -0.03300
Br101      Br  0.18062163  0.27421051  0.38242818     0.01300
Br102      Br  0.17792419  0.35140843  0.04018338    -0.02600
Br103      Br  0.16826854  0.25322582  0.05525164    -0.03400
Br104      Br  0.05547917  0.35694395  0.07101137     0.00600
C105        C  0.20573418  0.34317702  0.32801893     0.02000
C106        C  0.17507711  0.35427642  0.33062658     0.04800
C107        C  0.15617570  0.34959747  0.30084375    -0.11300
C108        C  0.16768104  0.33419672  0.26800360     0.24100
C109        C  0.19788333  0.32271406  0.26564056    -0.11800
C110        C  0.21612697  0.32567774  0.29646715     0.05500
C111        C  0.14672570  0.32621675  0.23918258     0.27900
C112        C  0.13065585  0.29755982  0.24744733    -0.12500
C113        C  0.10829233  0.29103359  0.22318245     0.06000
C114        C  0.10218837  0.31282446  0.18951947    -0.08500
C115        C  0.11962144  0.34076572  0.17997334     0.06800
C116        C  0.14185857  0.34739147  0.20471426    -0.12800
Br117      Br  0.21369258  0.30164054  0.22071249    -0.04900
Br118      Br  0.15730653  0.37298557  0.37643762     0.00700
Br119      Br  0.08438560  0.25285286  0.23831386     0.01200
Br120      Br  0.16471018  0.38614600  0.19283549    -0.03300
Br121      Br  0.25258334  0.30043692  0.29918691     0.01300
Br122      Br  0.11383703  0.36302811  0.30567480    -0.02600
Br123      Br  0.13817054  0.26782740  0.29360244    -0.03400
Br124      Br  0.11116951  0.37144567  0.13558712     0.00600
C125        C  0.26389987  0.38894102  0.31968465     0.02000
C126        C  0.24984658  0.41753518  0.32764419     0.04800
C127        C  0.26198191  0.44625845  0.30746654    -0.11300
C128        C  0.28951181  0.44697260  0.28139028     0.24100
C129        C  0.30313366  0.41888664  0.27188189    -0.11800
C130        C  0.29055986  0.38993163  0.29106029     0.05500
C131        C  0.30717378  0.47665068  0.27153319     0.27900
C132        C  0.30160399  0.49883521  0.23853132    -0.12500
C133        C  0.31618240  0.52832451  0.23236407     0.06000
C134        C  0.33749265  0.53518943  0.25841667    -0.08500
C135        C  0.34378109  0.51218430  0.29070632     0.06800
C136        C  0.32810197  0.48341101  0.29768521    -0.12800
Br137      Br  0.34065552  0.42057307  0.23511883    -0.04900
Br138      Br  0.21858423  0.41898510  0.37232526     0.00700
Br139      Br  0.30520037  0.55950381  0.18951369     0.01200
Br140      Br  0.33489352  0.45310369  0.34377986    -0.03300
Br141      Br  0.31252668  0.35231003  0.28104542     0.01300
Br142      Br  0.24297357  0.48525321  0.31891765    -0.02600
Br143      Br  0.27362888  0.48862124  0.20230671    -0.03400
Br144      Br  0.37517883  0.51850139  0.32451345     0.00600
C145        C  0.91874144  0.18921930  0.02795783     0.02000
C146        C  0.91031913  0.20338766  0.06293011     0.04800
C147        C  0.93060408  0.22417138  0.07491816    -0.11300
C148        C  0.95806055  0.23345482  0.04998937     0.24100
C149        C  0.96425216  0.22303305  0.01214503    -0.11800
C150        C  0.94524128  0.20010627  0.00162480     0.05500
C151        C  0.98158802  0.25122379  0.06591454     0.27900
C152        C  0.97668974  0.28284572  0.07057737    -0.12500
C153        C  0.99490184  0.29750102  0.09421347     0.06000
C154        C  0.02001263  0.28139019  0.11053811    -0.08500
C155        C  0.02486861  0.24971842  0.10540602     0.06800
C156        C  0.00613900  0.23490743  0.08263712    -0.12800
Br157      Br  0.99992703  0.23892647  0.97614357    -0.04900
Br158      Br  0.87095813  0.19415233  0.09495664     0.00700
Br159      Br  0.98201512  0.33784238  0.10860989     0.01200
Br160      Br  0.01246709  0.19120589  0.07731254    -0.03300
Br161      Br  0.95770324  0.18171988  0.95338714     0.01300
Br162      Br  0.92197103  0.23756169  0.12737173    -0.02600
Br163      Br  0.94359011  0.30533190  0.04646340    -0.03400
Br164      Br  0.05231884  0.22430387  0.13657513     0.00600
C165        C  0.96638018  0.07627574  0.01070854     0.02000
C166        C  0.98457729  0.08583785  0.03873247     0.04800
C167        C  0.01462998  0.07452206  0.04044642    -0.11300
C168        C  0.02662628  0.05320085  0.01474743     0.24100
C169        C  0.00987439  0.04603929  0.98416872    -0.11800
C170        C  0.97998258  0.05815471  0.98145307     0.05500
C171        C  0.05459747  0.03536157  0.02443261     0.27900
C172        C  0.08407054  0.04657514  0.00794217    -0.12500
C173        C  0.11031042  0.03374219  0.02456689     0.06000
C174        C  0.10714349  0.00965875  0.05807209    -0.08500
C175        C  0.07728747  0.99862983  0.07413355     0.06800
C176        C  0.05140913  0.01039567  0.05623768    -0.12800
Br177      Br  0.02764069  0.01835442  0.44785213    -0.04900
Br178      Br  0.96905681  0.11529215  0.07439533     0.00700
Br179      Br  0.14999694  0.05175901  0.00364922     0.01200
Br180      Br  0.01074990  0.99458641  0.07796666    -0.03300
Br181      Br  0.95808172  0.04883799  0.43864085     0.01300
Br182      Br  0.03913056  0.08701834  0.07946863    -0.02600
Br183      Br  0.08798381  0.08111952  0.96457330    -0.03400
Br184      Br  0.07012970  0.97300415  0.12568810     0.00600
C185        C  0.31243892  0.66746641  0.24243989     0.02000
C186        C  0.31164376  0.69875252  0.22367192     0.04800
C187        C  0.28764676  0.71865787  0.23622481    -0.11300
C188        C  0.26521585  0.70763779  0.26863409     0.24100
C189        C  0.26528068  0.67592629  0.28599313    -0.11800
C190        C  0.28824888  0.65575095  0.27204731     0.05500
C191        C  0.24322247  0.72957666  0.28720485     0.27900
C192        C  0.25318365  0.74842295  0.31396169    -0.12500
C193        C  0.23177870  0.76590438  0.33619517     0.06000
C194        C  0.19995822  0.76392739  0.33304507    -0.08500
C195        C  0.19008384  0.74389006  0.30729377     0.06800
C196        C  0.21174734  0.72829867  0.28283760    -0.12800
Br197      Br  0.23556982  0.66062093  0.33145834    -0.04900
Br198      Br  0.34488369  0.71510762  0.18379787     0.00700
Br199      Br  0.24620780  0.78836996  0.37556323     0.01200
Br200      Br  0.19836461  0.70352691  0.24477198    -0.03300
Br201      Br  0.28727465  0.61198864  0.29474126     0.01300
Br202      Br  0.28638270  0.76154934  0.21095727    -0.02600
Br203      Br  0.29600091  0.74797134  0.32289627    -0.03400
Br204      Br  0.14726649  0.73376506  0.30896699     0.00600
C205        C  0.16532914  0.94657989  0.15541025     0.02000
C206        C  0.18750208  0.92281284  0.15111928     0.04800
C207        C  0.19121818  0.89937279  0.18398144    -0.11300
C208        C  0.17371370  0.90027175  0.22168837     0.24100
C209        C  0.15226252  0.92438043  0.22638827    -0.11800
C210        C  0.14775069  0.94714083  0.19352542     0.05500
C211        C  0.17628393  0.87535151  0.25646650     0.27900
C212        C  0.15434720  0.85110179  0.26487608    -0.12500
C213        C  0.15251997  0.83082545  0.30151491     0.06000
C214        C  0.17429939  0.83272118  0.32880674    -0.08500
C215        C  0.19584792  0.85751986  0.32082095     0.06800
C216        C  0.19686826  0.87871332  0.28467000    -0.12800
Br217      Br  0.12893615  0.92611959  0.27847706    -0.04900
Br218      Br  0.21410758  0.92315413  0.10135907     0.00700
Br219      Br  0.11673842  0.80444907  0.31733435     0.01200
Br220      Br  0.22557992  0.91322003  0.27418500    -0.03300
Br221      Br  0.11702811  0.97888156  0.20195902     0.01300
Br222      Br  0.22020324  0.86591241  0.17770476    -0.02600
Br223      Br  0.12570379  0.84673296  0.22675751    -0.03400
Br224      Br  0.22177307  0.86460672  0.36069002     0.00600
C225        C  0.15782072  0.83823238  0.42399112     0.02000
C226        C  0.13844050  0.86447620  0.41756005     0.04800
C227        C  0.13705645  0.88772319  0.44330125    -0.11300
C228        C  0.15418817  0.88441100  0.47638479     0.24100
C229        C  0.17407068  0.85879866  0.48234841    -0.11800
C230        C  0.17591278  0.83584861  0.45647721     0.05500
C231        C  0.15068674  0.90699368  0.50614083     0.27900
C232        C  0.16927563  0.93395339  0.50001732    -0.12500
C233        C  0.16735113  0.95355976  0.02872158     0.06000
C234        C  0.14664596  0.94764938  0.06461770    -0.08500
C235        C  0.12969153  0.91941006  0.07240922     0.06800
C236        C  0.13048873  0.89949107  0.04257944    -0.12800
Br237      Br  0.19841057  0.85498790  0.52691555    -0.04900
Br238      Br  0.11171107  0.86766823  0.37606195     0.00700
Br239      Br  0.19675453  0.98728975  0.02182685     0.01200
Br240      Br  0.10530956  0.86220754  0.05193814    -0.03300
Br241      Br  0.20289792  0.80068940  0.46721396     0.01300
Br242      Br  0.11118029  0.92392092  0.43410372    -0.02600
Br243      Br  0.19792872  0.94253826  0.45160427    -0.03400
Br244      Br  0.10845817  0.90569958  0.12506359     0.00600
C245        C  0.67219122  0.23557892  0.11109371     0.02000
C246        C  0.66593388  0.21831280  0.08034834     0.04800
C247        C  0.69023455  0.20542994  0.05670260    -0.11300
C248        C  0.72062121  0.20812517  0.06517381     0.24100
C249        C  0.72713970  0.22623393  0.09456970    -0.11800
C250        C  0.70303974  0.23937365  0.11796610     0.05500
C251        C  0.74459403  0.18658590  0.05052903     0.27900
C252        C  0.74789706  0.15734644  0.07399698    -0.12500
C253        C  0.77371655  0.13872221  0.06550833     0.06000
C254        C  0.79656793  0.14924274  0.03320588    -0.08500
C255        C  0.79219200  0.17796716  0.00822914     0.06800
C256        C  0.76610284  0.19643345  0.01689878    -0.12800
Br257      Br  0.76921645  0.23054156  0.10505312    -0.04900
Br258      Br  0.62445672  0.20851915  0.07331254     0.00700
Br259      Br  0.77741564  0.09907435  0.09927230     0.01200
Br260      Br  0.76033027  0.23611752  0.98432274    -0.03300
Br261      Br  0.71260346  0.25747041  0.16383234     0.01300
Br262      Br  0.68215715  0.18228954  0.01420283    -0.02600
Br263      Br  0.71759213  0.14368511  0.11954632    -0.03400
Br264      Br  0.82225171  0.19330872  0.46449415     0.00600
C265        C  0.58500974  0.47998581  0.32885191     0.02000
C266        C  0.59356353  0.50139406  0.29357921     0.04800
C267        C  0.57136637  0.51274032  0.26832194    -0.11300
C268        C  0.54001343  0.50605931  0.28065127     0.24100
C269        C  0.53120693  0.48538773  0.31623616    -0.11800
C270        C  0.55357649  0.47235539  0.34012837     0.05500
C271        C  0.51629528  0.52651615  0.26276328     0.27900
C272        C  0.51237726  0.55673966  0.27374769    -0.12500
C273        C  0.48718911  0.57487336  0.26291322     0.06000
C274        C  0.46494982  0.56260934  0.24234430    -0.08500
C275        C  0.46929491  0.53278898  0.23012027     0.06800
C276        C  0.49538332  0.51499250  0.23963183    -0.12800
Br277      Br  0.48802003  0.47776978  0.33471509    -0.04900
Br278      Br  0.63404000  0.51987277  0.28295160     0.00700
Br279      Br  0.48263064  0.61623422  0.27836220     0.01200
Br280      Br  0.50166339  0.47409659  0.22340809    -0.03300
Br281      Br  0.53989160  0.44945618  0.39219378     0.01300
Br282      Br  0.58325837  0.54009483  0.21856511    -0.02600
Br283      Br  0.53999686  0.57250606  0.30697517    -0.03400
Br284      Br  0.43795092  0.51490490  0.20474869     0.00600
C285        C  0.61700801  0.41526451  0.34166750     0.02000
C286        C  0.59767101  0.38865335  0.34971133     0.04800
C287        C  0.59714556  0.36835148  0.32052308    -0.11300
C288        C  0.61653610  0.37396824  0.28368749     0.24100
C289        C  0.63673901  0.39970733  0.27633505    -0.11800
C290        C  0.63755524  0.41970087  0.30560550     0.05500
C291        C  0.61894664  0.35031844  0.25544373     0.27900
C292        C  0.63752052  0.32390677  0.26323146    -0.12500
C293        C  0.63922441  0.30049792  0.23804716     0.06000
C294        C  0.62253273  0.30341044  0.20409871    -0.08500
C295        C  0.60399030  0.33018027  0.19640691     0.06800
C296        C  0.60263759  0.35375854  0.22162865    -0.12800
Br297      Br  0.66397348  0.40693290  0.22646647    -0.04900
Br298      Br  0.57391930  0.37807194  0.40149542     0.00700
Br299      Br  0.66418274  0.26425831  0.25195951     0.01200
Br300      Br  0.57820921  0.39080108  0.21040539    -0.03300
Br301      Br  0.66994020  0.45039498  0.29870049     0.01300
Br302      Br  0.57029823  0.33227479  0.33104666    -0.02600
Br303      Br  0.66066468  0.31995329  0.30904164    -0.03400
Br304      Br  0.57807316  0.33373697  0.15401598     0.00600
C305        C  0.63357426  0.41153514  0.43304287     0.02000
C306        C  0.65642864  0.38837604  0.42910955     0.04800
C307        C  0.65983283  0.36466654  0.46176733    -0.11300
C308        C  0.64238028  0.36531483  0.99881028     0.24100
C309        C  0.61993798  0.38856494  0.00315065    -0.11800
C310        C  0.61426924  0.41063783  0.47007639     0.05500
C311        C  0.64510961  0.34063711  0.03367023     0.27900
C312        C  0.62298207  0.31656567  0.04259620    -0.12500
C313        C  0.62006515  0.29775335  0.08033467     0.06000
C314        C  0.64119595  0.30068744  0.10811178    -0.08500
C315        C  0.66327760  0.32488191  0.09931068     0.06800
C316        C  0.66528180  0.34478496  0.06209112    -0.12800
Br317      Br  0.59474581  0.38875418  0.05433181    -0.04900
Br318      Br  0.68425228  0.38987433  0.38024490     0.00700
Br319      Br  0.58417003  0.27142545  0.09637708     0.01200
Br320      Br  0.69498096  0.37839638  0.05025394    -0.03300
Br321      Br  0.58158101  0.44062746  0.47693026     0.01300
Br322      Br  0.69010843  0.33224344  0.45619700    -0.02600
Br323      Br  0.59579353  0.31031974  0.00344389    -0.03400
Br324      Br  0.68842366  0.33290662  0.13957575     0.00600
C325        C  0.84474542  0.02117894  0.01892756     0.02000
C326        C  0.81302181  0.01445678  0.02260383     0.04800
C327        C  0.80281117  0.98313536  0.02708099    -0.11300
C328        C  0.82439495  0.95862673  0.02627252     0.24100
C329        C  0.85608693  0.96546309  0.02205800    -0.11800
C330        C  0.86613008  0.99651018  0.01954690     0.05500
C331        C  0.81446780  0.92566975  0.02774769     0.27900
C332        C  0.81567090  0.90409731  0.06304084    -0.12500
C333        C  0.81364755  0.87170937  0.06163721     0.06000
C334        C  0.80839224  0.86035883  0.52435825    -0.08500
C335        C  0.80383057  0.88248066  0.49048080     0.06800
C336        C  0.80712447  0.91464708  0.49179047    -0.12800
Br337      Br  0.88549058  0.93163776  0.51803734    -0.04900
Br338      Br  0.78368783  0.04808421  0.02170965     0.00700
Br339      Br  0.81880391  0.84246530  0.10892194     0.01200
Br340      Br  0.80443697  0.94447611  0.44391316    -0.03300
Br341      Br  0.90886621  0.00441134  0.51775993     0.01300
Br342      Br  0.75943465  0.97355153  0.03500167    -0.02600
Br343      Br  0.82158632  0.91914082  0.11270409    -0.03400
Br344      Br  0.79500619  0.86909196  0.44102570     0.00600
C345        C  0.58240489  0.76385278  0.24967316     0.02000
C346        C  0.57166927  0.73475420  0.27123960     0.04800
C347        C  0.54758624  0.71906051  0.25870092    -0.11300
C348        C  0.53330708  0.73267213  0.22534375     0.24100
C349        C  0.54492505  0.76081729  0.20244315    -0.11800
C350        C  0.56948800  0.77647708  0.21467045     0.05500
C351        C  0.50434875  0.71858099  0.21748441     0.27900
C352        C  0.50531499  0.69382953  0.19443651    -0.12500
C353        C  0.47851189  0.67638868  0.19370881     0.06000
C354        C  0.45073773  0.68331213  0.21693799    -0.08500
C355        C  0.44943273  0.70948590  0.23770917     0.06800
C356        C  0.47617734  0.72712192  0.23789510    -0.12800
Br357      Br  0.52598759  0.77846521  0.15575970    -0.04900
Br358      Br  0.58856403  0.71696558  0.31979017     0.00700
Br359      Br  0.48125189  0.64106618  0.16414498     0.01200
Br360      Br  0.47485610  0.76171625  0.26851102    -0.03300
Br361      Br  0.58375338  0.81624938  0.18553790     0.01300
Br362      Br  0.53290181  0.67963367  0.28885550    -0.02600
Br363      Br  0.54410326  0.68228574  0.16684696    -0.03400
Br364      Br  0.41104363  0.72094329  0.26631804     0.00600
C365        C  0.78012148  0.77819424  0.45996152     0.02000
C366        C  0.78978711  0.78906799  0.41831538     0.04800
C367        C  0.76925324  0.78829421  0.38943777    -0.11300
C368        C  0.73906082  0.77741585  0.40135597     0.24100
C369        C  0.73040962  0.76367920  0.44150314    -0.11800
C370        C  0.75136046  0.76284512  0.47023246     0.05500
C371        C  0.71630372  0.78164982  0.37171663     0.27900
C372        C  0.70260083  0.81105941  0.36274955    -0.12500
C373        C  0.68010997  0.81509829  0.33602926     0.06000
C374        C  0.67076743  0.78954792  0.31797315    -0.08500
C375        C  0.68562399  0.76034305  0.32616677     0.06800
C376        C  0.70868537  0.75667605  0.35220286    -0.12800
Br377      Br  0.68932043  0.74730820  0.45752707    -0.04900
Br378      Br  0.83039291  0.80590729  0.39829176     0.00700
Br379      Br  0.66072160  0.85555391  0.32736844     0.01200
Br380      Br  0.72926329  0.71699709  0.36272209    -0.03300
Br381      Br  0.74156558  0.73811542  0.52233614     0.01300
Br382      Br  0.78171096  0.80348190  0.33308514    -0.02600
Br383      Br  0.71386481  0.84565412  0.38867941    -0.03400
Br384      Br  0.67206681  0.72366872  0.30733722     0.00600
C385        C  0.65350911  0.78478459  0.22822896     0.02000
C386        C  0.65954230  0.75915242  0.20629615     0.04800
C387        C  0.67992003  0.76275070  0.17007738    -0.11300
C388        C  0.69458217  0.79169382  0.15543480     0.24100
C389        C  0.68747026  0.81751391  0.17592265    -0.11800
C390        C  0.66590875  0.81441575  0.21072906     0.05500
C391        C  0.71778050  0.79495322  0.11884567     0.27900
C392        C  0.74752526  0.78276929  0.12168717    -0.12500
C393        C  0.76951923  0.78547393  0.08737303     0.06000
C394        C  0.76300173  0.80319429  0.05063814    -0.08500
C395        C  0.73333829  0.81558615  0.04796555     0.06800
C396        C  0.71045868  0.81053509  0.08149460    -0.12800
Br397      Br  0.70777875  0.85719544  0.15656215    -0.04900
Br398      Br  0.63939638  0.71932512  0.22318921     0.00700
Br399      Br  0.80806998  0.76362344  0.09089670     0.01200
Br400      Br  0.66901296  0.82469605  0.07634104    -0.03300
Br401      Br  0.64983773  0.85180987  0.23018026     0.01300
Br402      Br  0.68792252  0.72804390  0.13993804    -0.02600
Br403      Br  0.75847301  0.76329223  0.17317830    -0.03400
Br404      Br  0.72283704  0.83795060  0.49857972     0.00600
N405        N  0.63506933  0.77982280  0.76751032    -0.02800
C406        C  0.60370180  0.78072109  0.77057088    -0.00200
C407        C  0.59152505  0.79115853  0.80594370    -0.23100
C408        C  0.61564142  0.79582665  0.82644093    -0.23300
C409        C  0.64213277  0.78905200  0.80263128    -0.00300
H410        H  0.56751544  0.79169861  0.81767518     0.13400
H411        H  0.61394174  0.80165791  0.85661604     0.13500
N412        N  0.78702252  0.80947878  0.01707933    -0.02800
C413        C  0.81147319  0.82712556  0.02120208    -0.00200
C414        C  0.83841912  0.81396916  0.00591741    -0.23100
C415        C  0.83012161  0.78780693  0.99068443    -0.23300
C416        C  0.79823519  0.78708109  0.99451097    -0.00300
H417        H  0.86129113  0.82402948  0.00240362     0.11800
H418        H  0.84564339  0.77363951  0.97343691     0.13500
N419        N  0.61661789  0.44006875  0.86914048    -0.02800
C420        C  0.60890271  0.47045658  0.85800177    -0.00200
C421        C  0.62039774  0.48950029  0.88223418    -0.23100
C422        C  0.63569865  0.47029554  0.90929874    -0.23300
C423        C  0.63252028  0.43990123  0.90146082    -0.00300
H424        H  0.61627853  0.51433537  0.88204737     0.13400
H425        H  0.64513551  0.47729597  0.93485063     0.13500
N426        N  0.64239162  0.27798810  0.64416840    -0.02800
C427        C  0.64817400  0.24736353  0.64087874    -0.00200
C428        C  0.63345208  0.22829718  0.67364601    -0.23100
C429        C  0.61822951  0.24782527  0.69824131    -0.23300
C430        C  0.62478876  0.27834912  0.68029454    -0.00300
H431        H  0.63553141  0.20316960  0.68044718     0.13400
H432        H  0.60675315  0.24063169  0.72819099     0.13500
N433        N  0.17288927  0.80816660  0.86472179    -0.02800
C434        C  0.17636303  0.77694285  0.86254210    -0.00200
C435        C  0.16112691  0.75949700  0.89637945    -0.23100
C436        C  0.14799296  0.78042088  0.92041611    -0.23300
C437        C  0.15613246  0.81018279  0.90109938    -0.00300
H438        H  0.16146158  0.73424447  0.90411365     0.13400
H439        H  0.13664787  0.77449492  0.95085045     0.13500
N440        N  0.14315207  0.97050372  0.59333685    -0.02800
C441        C  0.13335060  0.00031237  0.58250503    -0.00200
C442        C  0.14617068  0.02073453  0.60384012    -0.23100
C443        C  0.16419757  0.00310618  0.62896168    -0.23300
C444        C  0.16119640  0.97218406  0.62321560    -0.00300
H445        H  0.14096539  0.04533580  0.60358738     0.13400
H446        H  0.17499131  0.01137532  0.65265962     0.13500
O447        O  0.89624819  0.13928238  0.55711410    -0.73800
O448        O  0.85862527  0.06099342  0.55334794    -0.73800
O449        O  0.91716266  0.08177498  0.54913145    -0.73900
O450        O  0.83796663  0.11984499  0.56024096    -0.73900
O451        O  0.83939016  0.12900018  0.49352238    -0.73900
O452        O  0.92104840  0.09534158  0.48256530    -0.73800
O453        O  0.86334564  0.07154799  0.98586208    -0.73800
O454        O  0.89712764  0.15231323  0.49078281    -0.73900
Ni455      Ni  0.87727029  0.09996633  0.55723343     1.25400
Ni456      Ni  0.88011537  0.11216200  0.48574860     1.25400
C457        C  0.90302720  0.15871544  0.52506661     0.88400
C458        C  0.85537042  0.05263361  0.51930714     0.88300
C459        C  0.93300711  0.08416148  0.51433458     0.88400
C460        C  0.82578854  0.13130486  0.52875190     0.88500
O461        O  0.36066037  0.57812479  0.78105067    -0.73800
O462        O  0.41499241  0.64898040  0.76185468    -0.73800
O463        O  0.35310252  0.64059966  0.77176168    -0.73900
O464        O  0.42181815  0.58674294  0.77323829    -0.73900
O465        O  0.42549695  0.58776646  0.70659263    -0.73900
O466        O  0.35279388  0.64000671  0.70584685    -0.73800
O467        O  0.41522519  0.64999142  0.69560889    -0.73800
O468        O  0.36412280  0.57707850  0.71496506    -0.73900
Ni469      Ni  0.38745166  0.61372283  0.77422211     1.25400
Ni470      Ni  0.38926649  0.61382667  0.70325618     1.25400
C471        C  0.35459676  0.56504068  0.75110004     0.88400
C472        C  0.42527313  0.66007188  0.72544355     0.88300
C473        C  0.34095931  0.64851241  0.73937302     0.88400
C474        C  0.43578694  0.57933708  0.74054917     0.88500
N475        N  0.06758826  0.30174789  0.63580930    -0.02800
C476        C  0.03655688  0.29671561  0.63836609    -0.00200
C477        C  0.02194424  0.30330580  0.67472901    -0.23100
C478        C  0.04415955  0.31309477  0.69533744    -0.23300
C479        C  0.07199314  0.31159627  0.67150937    -0.00300
H480        H  0.99772195  0.30016688  0.68574937     0.13400
H481        H  0.04070859  0.31885514  0.72570206     0.13500
N482        N  0.22538010  0.34794408  0.85769051    -0.02800
C483        C  0.25455573  0.35962486  0.84730132    -0.00200
C484        C  0.27405802  0.34549712  0.87360053    -0.23100
C485        C  0.25654489  0.32481035  0.90148862    -0.23300
C486        C  0.22653255  0.32770259  0.89249497    -0.00300
H487        H  0.29769651  0.35161562  0.87457041     0.13400
H488        H  0.26406183  0.31247149  0.92887112     0.13500
C489        C  0.20050759  0.32197512  0.92562332     0.02000
C490        C  0.19995362  0.33799424  0.95969185     0.04800
C491        C  0.17726960  0.33172083  0.49238800    -0.11300
C492        C  0.15387995  0.30998387  0.49131303     0.24100
C493        C  0.15345849  0.29415259  0.95741776    -0.11800
C494        C  0.17740641  0.29956551  0.92513014     0.05500
C495        C  0.12941119  0.30446042  0.52626994     0.27900
C496        C  0.13414550  0.28258080  0.56005275    -0.12500
C497        C  0.11447361  0.28188462  0.59657820     0.06000
C498        C  0.08928243  0.30277424  0.59937494    -0.08500
C499        C  0.08499157  0.32480370  0.56516741     0.06800
C500        C  0.10444761  0.32514264  0.52871893    -0.12800
Br501      Br  0.12052886  0.26548910  0.95539604    -0.04900
Br502      Br  0.23029070  0.36953963  0.96243482     0.00700
Br503      Br  0.12390297  0.25324404  0.64235373     0.01200
Br504      Br  0.09801667  0.35507359  0.48222583    -0.03300
Br505      Br  0.17951230  0.27487889  0.88172759     0.01300
Br506      Br  0.17765178  0.35251561  0.53950569    -0.02600
Br507      Br  0.16859556  0.25432037  0.55619517    -0.03400
Br508      Br  0.05534713  0.35773938  0.56926332     0.00600
C509        C  0.20497402  0.34383335  0.82785316     0.02000
C510        C  0.17442027  0.35522255  0.83056375     0.04800
C511        C  0.15544037  0.35093120  0.80070687    -0.11300
C512        C  0.16674511  0.33555970  0.76775506     0.24100
C513        C  0.19683388  0.32377249  0.76531362    -0.11800
C514        C  0.21516356  0.32642033  0.79614570     0.05500
C515        C  0.14565995  0.32781348  0.73895447     0.27900
C516        C  0.12921010  0.29938083  0.74736444    -0.12500
C517        C  0.10696125  0.29296008  0.72288789     0.06000
C518        C  0.10134454  0.31462389  0.68887829    -0.08500
C519        C  0.11911499  0.34233315  0.67922714     0.06800
C520        C  0.14123653  0.34886843  0.70418753    -0.12800
Br521      Br  0.21234897  0.30268282  0.72027912    -0.04900
Br522      Br  0.15687480  0.37376493  0.87662497     0.00700
Br523      Br  0.08264564  0.25504616  0.73803288     0.01200
Br524      Br  0.16457850  0.38730974  0.69212376    -0.03300
Br525      Br  0.25143685  0.30088296  0.79863346     0.01300
Br526      Br  0.11326831  0.36487185  0.80556450    -0.02600
Br527      Br  0.13612273  0.26977471  0.79390265    -0.03400
Br528      Br  0.11135422  0.37275864  0.63422031     0.00600
C529        C  0.26351252  0.38897674  0.81939894     0.02000
C530        C  0.24960961  0.41767827  0.82716448     0.04800
C531        C  0.26185222  0.44628685  0.80676057    -0.11300
C532        C  0.28938850  0.44678524  0.78072197     0.24100
C533        C  0.30285907  0.41858492  0.77139926    -0.11800
C534        C  0.29016806  0.38973812  0.79079158     0.05500
C535        C  0.30726289  0.47633644  0.77090925     0.27900
C536        C  0.30181666  0.49862774  0.73795794    -0.12500
C537        C  0.31639145  0.52811146  0.73206389     0.06000
C538        C  0.33761123  0.53484852  0.75830583    -0.08500
C539        C  0.34386286  0.51169941  0.79044743     0.06800
C540        C  0.32817024  0.48293770  0.79717673    -0.12800
Br541      Br  0.34034218  0.41997315  0.73460105    -0.04900
Br542      Br  0.21850693  0.41943210  0.87196100     0.00700
Br543      Br  0.30549796  0.55946759  0.68935493     0.01200
Br544      Br  0.33489698  0.45244055  0.84311094    -0.03300
Br545      Br  0.31201863  0.35196843  0.78115239     0.01300
Br546      Br  0.24299578  0.48542853  0.81787057    -0.02600
Br547      Br  0.27402012  0.48856377  0.70142838    -0.03400
Br548      Br  0.37521407  0.51783355  0.82439426     0.00600
C549        C  0.91890828  0.18809591  0.52904168     0.02000
C550        C  0.91061483  0.20235692  0.56397814     0.04800
C551        C  0.93088714  0.22333646  0.57562741    -0.11300
C552        C  0.95827285  0.23258024  0.55052639     0.24100
C553        C  0.96448067  0.22183668  0.51289062    -0.11800
C554        C  0.94542090  0.19884299  0.50261849     0.05500
C555        C  0.98166029  0.25083876  0.56600081     0.27900
C556        C  0.97658697  0.28259223  0.56977185    -0.12500
C557        C  0.99469990  0.29786059  0.59291189     0.06000
C558        C  0.01984175  0.28217360  0.60971048    -0.08500
C559        C  0.02487721  0.25035791  0.60544628     0.06800
C560        C  0.00626374  0.23495897  0.58313241    -0.12800
Br561      Br  0.00020698  0.23745768  0.47678301    -0.04900
Br562      Br  0.87139785  0.19310846  0.59635681     0.00700
Br563      Br  0.98165390  0.33853609  0.60595300     0.01200
Br564      Br  0.01278358  0.19107643  0.57901606    -0.03300
Br565      Br  0.95781567  0.18022641  0.45453501     0.01300
Br566      Br  0.92229054  0.23722064  0.62779476    -0.02600
Br567      Br  0.94336467  0.30442780  0.54514713    -0.03400
Br568      Br  0.05241813  0.22561541  0.63720010     0.00600
C569        C  0.96597020  0.07528155  0.51186217     0.02000
C570        C  0.98396106  0.08446788  0.54035936     0.04800
C571        C  0.01400927  0.07316665  0.54211692    -0.11300
C572        C  0.02622755  0.05226897  0.51595738     0.24100
C573        C  0.00966205  0.04543036  0.48504679    -0.11800
C574        C  0.97977352  0.05753318  0.48229783     0.05500
C575        C  0.05434211  0.03459786  0.52533874     0.27900
C576        C  0.08371217  0.04646003  0.50948391    -0.12500
C577        C  0.10998022  0.03384189  0.52622114     0.06000
C578        C  0.10692473  0.00934087  0.55923456    -0.08500
C579        C  0.07716917  0.99765650  0.57464082     0.06800
C580        C  0.05130815  0.00918872  0.55654100    -0.12800
Br581      Br  0.02759180  0.01850562  0.94741476    -0.04900
Br582      Br  0.96823842  0.11347237  0.57656800     0.00700
Br583      Br  0.14946594  0.05271416  0.50622747     0.01200
Br584      Br  0.01080305  0.99246782  0.57729423    -0.03300
Br585      Br  0.95796532  0.04891785  0.93835195     0.01300
Br586      Br  0.03822166  0.08513753  0.58177223    -0.02600
Br587      Br  0.08737668  0.08159985  0.46692142    -0.03400
Br588      Br  0.06993691  0.97148800  0.62579113     0.00600
C589        C  0.31233956  0.66694230  0.74295191     0.02000
C590        C  0.31148703  0.69833348  0.72458911     0.04800
C591        C  0.28737062  0.71805580  0.73729974    -0.11300
C592        C  0.26484144  0.70673468  0.76944283     0.24100
C593        C  0.26494622  0.67492371  0.78635252    -0.11800
C594        C  0.28806690  0.65494859  0.77227195     0.05500
C595        C  0.24270037  0.72845975  0.78821393     0.27900
C596        C  0.25242225  0.74693385  0.81554198    -0.12500
C597        C  0.23089114  0.76437198  0.83766143     0.06000
C598        C  0.19916010  0.76275640  0.83378015    -0.08500
C599        C  0.18949681  0.74302144  0.80752168     0.06800
C600        C  0.21131584  0.72743041  0.78325912    -0.12800
Br601      Br  0.23504937  0.65920115  0.83139993    -0.04900
Br602      Br  0.34478790  0.71504824  0.68505504     0.00700
Br603      Br  0.24495506  0.78631545  0.87776872     0.01200
Br604      Br  0.19825447  0.70305011  0.74457829    -0.03300
Br605      Br  0.28718598  0.61107294  0.79440343     0.01300
Br606      Br  0.28605712  0.76109825  0.71262859    -0.02600
Br607      Br  0.29506170  0.74605116  0.82532208    -0.03400
Br608      Br  0.14669157  0.73332824  0.80816707     0.00600
C609        C  0.16496144  0.94627319  0.65664190     0.02000
C610        C  0.18726658  0.92263678  0.65235076     0.04800
C611        C  0.19087883  0.89905552  0.68509521    -0.11300
C612        C  0.17314015  0.89969870  0.72270684     0.24100
C613        C  0.15156064  0.92369760  0.72741312    -0.11800
C614        C  0.14711943  0.94656189  0.69463329     0.05500
C615        C  0.17560516  0.87462158  0.75734929     0.27900
C616        C  0.15358682  0.85043989  0.76556624    -0.12500
C617        C  0.15171014  0.82998325  0.80206511     0.06000
C618        C  0.17351206  0.83163761  0.82939444    -0.08500
C619        C  0.19518376  0.85631903  0.82156633     0.06800
C620        C  0.19623262  0.87771644  0.78559148    -0.12800
Br621      Br  0.12796517  0.92515651  0.77939117    -0.04900
Br622      Br  0.21411266  0.92332577  0.60271922     0.00700
Br623      Br  0.11585518  0.80367073  0.81765700     0.01200
Br624      Br  0.22502043  0.91215317  0.77544306    -0.03300
Br625      Br  0.11606388  0.97801182  0.70296296     0.01300
Br626      Br  0.22002410  0.86574363  0.67876909    -0.02600
Br627      Br  0.12488976  0.84641931  0.72739867    -0.03400
Br628      Br  0.22130870  0.86289448  0.86142230     0.00600
C629        C  0.15669580  0.83711127  0.92449773     0.02000
C630        C  0.13742922  0.86343023  0.91786251     0.04800
C631        C  0.13609345  0.88678325  0.94345156    -0.11300
C632        C  0.15319296  0.88354700  0.97655903     0.24100
C633        C  0.17288189  0.85780890  0.98281999    -0.11800
C634        C  0.17462469  0.83471028  0.95715765     0.05500
C635        C  0.14993363  0.90641514  0.00595944     0.27900
C636        C  0.16884552  0.93315529  0.99951383    -0.12500
C637        C  0.16753286  0.95409657  0.52954982     0.06000
C638        C  0.14689247  0.94770537  0.56544786    -0.08500
C639        C  0.13030876  0.91923573  0.57291196     0.06800
C640        C  0.13134565  0.89957881  0.54276330    -0.12800
Br641      Br  0.19713083  0.85406653  0.02747746    -0.04900
Br642      Br  0.11073945  0.86659587  0.87633163     0.00700
Br643      Br  0.19652268  0.98816008  0.52305596     0.01200
Br644      Br  0.10663378  0.86198093  0.55167943    -0.03300
Br645      Br  0.20122164  0.79932663  0.96847784     0.01300
Br646      Br  0.11032361  0.92303835  0.93401509    -0.02600
Br647      Br  0.19760555  0.94106803  0.95111938    -0.03400
Br648      Br  0.10928529  0.90485469  0.62549753     0.00600
C649        C  0.67296620  0.23608003  0.61225928     0.02000
C650        C  0.66616267  0.21785467  0.58273223     0.04800
C651        C  0.69010756  0.20457153  0.55896968    -0.11300
C652        C  0.72072715  0.20773329  0.56626259     0.24100
C653        C  0.72777492  0.22663571  0.59456020    -0.11800
C654        C  0.70401999  0.24033253  0.61790964     0.05500
C655        C  0.74454493  0.18607096  0.55151732     0.27900
C656        C  0.74795031  0.15689712  0.57508156    -0.12500
C657        C  0.77356870  0.13810988  0.56621100     0.06000
C658        C  0.79626367  0.14852735  0.53365983    -0.08500
C659        C  0.79175573  0.17717293  0.50859023     0.06800
C660        C  0.76575294  0.19570172  0.51748032    -0.12800
Br661      Br  0.77011661  0.23126907  0.60374483    -0.04900
Br662      Br  0.62447417  0.20731086  0.57767253     0.00700
Br663      Br  0.77717619  0.09833054  0.59973805     0.01200
Br664      Br  0.75968652  0.23518245  0.48461113    -0.03300
Br665      Br  0.71440460  0.25991505  0.66222600     0.01300
Br666      Br  0.68123975  0.18015268  0.51807594    -0.02600
Br667      Br  0.71813157  0.14355769  0.62129628    -0.03400
Br668      Br  0.82300313  0.19429353  0.96462509     0.00600
C669        C  0.58590722  0.48122854  0.83004538     0.02000
C670        C  0.59429264  0.50218421  0.79431038     0.04800
C671        C  0.57192030  0.51325517  0.76918353    -0.11300
C672        C  0.54059978  0.50675015  0.78200654     0.24100
C673        C  0.53195813  0.48664431  0.81813616    -0.11800
C674        C  0.55447870  0.47389856  0.84196330     0.05500
C675        C  0.51678905  0.52693465  0.76390630     0.27900
C676        C  0.51273105  0.55724405  0.77453552    -0.12500
C677        C  0.48729031  0.57504542  0.76389117     0.06000
C678        C  0.46515694  0.56252261  0.74338401    -0.08500
C679        C  0.46971447  0.53265490  0.73136668     0.06800
C680        C  0.49587246  0.51504913  0.74108741    -0.12800
Br681      Br  0.48882416  0.47942906  0.83730911    -0.04900
Br682      Br  0.63481235  0.52049279  0.78281590     0.00700
Br683      Br  0.48217691  0.61622422  0.77975088     0.01200
Br684      Br  0.50224445  0.47392419  0.72562255    -0.03300
Br685      Br  0.54110466  0.45182775  0.89462836     0.01300
Br686      Br  0.58355879  0.53996827  0.71883910    -0.02600
Br687      Br  0.54057859  0.57358360  0.80700166    -0.03400
Br688      Br  0.43855608  0.51446335  0.70600521     0.00600
C689        C  0.61807274  0.41661808  0.84229911     0.02000
C690        C  0.59854724  0.39016265  0.85023252     0.04800
C691        C  0.59803238  0.36982727  0.82108066    -0.11300
C692        C  0.61750751  0.37536288  0.78430658     0.24100
C693        C  0.63776269  0.40105952  0.77697057    -0.11800
C694        C  0.63866666  0.42099575  0.80628308     0.05500
C695        C  0.62001523  0.35164308  0.75616369     0.27900
C696        C  0.63888413  0.32544795  0.76387280    -0.12500
C697        C  0.64089180  0.30209034  0.73860411     0.06000
C698        C  0.62393975  0.30466667  0.70492658    -0.08500
C699        C  0.60508793  0.33120808  0.69731762     0.06800
C700        C  0.60362980  0.35486858  0.72242445    -0.12800
Br701      Br  0.66493803  0.40831090  0.72705519    -0.04900
Br702      Br  0.57447570  0.37991715  0.90184145     0.00700
Br703      Br  0.66676675  0.26643386  0.75184571     0.01200
Br704      Br  0.57897391  0.39173218  0.71113710    -0.03300
Br705      Br  0.67122176  0.45149996  0.79950585     0.01300
Br706      Br  0.57111927  0.33380876  0.83158665    -0.02600
Br707      Br  0.66196636  0.32168544  0.80972694    -0.03400
Br708      Br  0.57898260  0.33436332  0.65515478     0.00600
C709        C  0.63503504  0.41267860  0.93348920     0.02000
C710        C  0.65770330  0.38936196  0.92926350     0.04800
C711        C  0.66098168  0.36540358  0.96168593    -0.11300
C712        C  0.64115672  0.36468075  0.49882354     0.24100
C713        C  0.61838163  0.38766499  0.50277743    -0.11800
C714        C  0.61592580  0.41178311  0.97068146     0.05500
C715        C  0.64433968  0.34049650  0.53408131     0.27900
C716        C  0.62258742  0.31610320  0.54374787    -0.12500
C717        C  0.62026868  0.29760691  0.58168801     0.06000
C718        C  0.64167169  0.30115450  0.60890917    -0.08500
C719        C  0.66329743  0.32575698  0.59943528     0.06800
C720        C  0.66468379  0.34534744  0.56201826    -0.12800
Br721      Br  0.59291221  0.38788728  0.55374160    -0.04900
Br722      Br  0.68547620  0.39095074  0.88035086     0.00700
Br723      Br  0.58470521  0.27099347  0.59884216     0.01200
Br724      Br  0.69376351  0.37949483  0.54925222    -0.03300
Br725      Br  0.58361695  0.44207661  0.97812061     0.01300
Br726      Br  0.69097784  0.33277451  0.95570400    -0.02600
Br727      Br  0.59508474  0.30896005  0.50534350    -0.03400
Br728      Br  0.68857539  0.33481081  0.63907274     0.00600
C729        C  0.84428923  0.02052929  0.51892996     0.02000
C730        C  0.81256024  0.01377521  0.52287632     0.04800
C731        C  0.80236840  0.98245331  0.52724319    -0.11300
C732        C  0.82396684  0.95797807  0.52598873     0.24100
C733        C  0.85566476  0.96485508  0.52141413    -0.11800
C734        C  0.86569867  0.99589280  0.51905256     0.05500
C735        C  0.81402390  0.92503425  0.52734013     0.27900
C736        C  0.81574080  0.90324248  0.56231483    -0.12500
C737        C  0.81366214  0.87090604  0.56059632     0.06000
C738        C  0.80907485  0.86089465  0.02530374    -0.08500
C739        C  0.80507666  0.88280704  0.99100567     0.06800
C740        C  0.80818710  0.91502681  0.99208863    -0.12800
Br741      Br  0.88588709  0.93216671  0.01938861    -0.04900
Br742      Br  0.78319375  0.04736332  0.52237026     0.00700
Br743      Br  0.81970107  0.84134670  0.60726093     0.01200
Br744      Br  0.80606480  0.94459435  0.94383272    -0.03300
Br745      Br  0.90926165  0.00500993  0.01870972     0.01300
Br746      Br  0.75899571  0.97282453  0.53562438    -0.02600
Br747      Br  0.82241584  0.91791158  0.61194441    -0.03400
Br748      Br  0.79727188  0.86903775  0.94134814     0.00600
C749        C  0.58401499  0.76162865  0.75076565     0.02000
C750        C  0.57314495  0.73253140  0.77219087     0.04800
C751        C  0.54876425  0.71717419  0.75981082    -0.11300
C752        C  0.53437682  0.73107254  0.72668172     0.24100
C753        C  0.54617212  0.75917567  0.70384217    -0.11800
C754        C  0.57097421  0.77453901  0.71597490     0.05500
C755        C  0.50523750  0.71725942  0.71888146     0.27900
C756        C  0.50592205  0.69253947  0.69581251    -0.12500
C757        C  0.47891587  0.67544976  0.69494827     0.06000
C758        C  0.45119693  0.68264551  0.71811858    -0.08500
C759        C  0.45019709  0.70877784  0.73894570     0.06800
C760        C  0.47714645  0.72609803  0.73921615    -0.12800
Br761      Br  0.52717169  0.77717781  0.65736743    -0.04900
Br762      Br  0.59022569  0.71434853  0.82044608     0.00700
Br763      Br  0.48130622  0.64020830  0.66525179     0.01200
Br764      Br  0.47618092  0.76071324  0.76975098    -0.03300
Br765      Br  0.58538740  0.81433313  0.68706462     0.01300
Br766      Br  0.53384466  0.67783337  0.78992292    -0.02600
Br767      Br  0.54458900  0.68056444  0.66832702    -0.03400
Br768      Br  0.41192690  0.72064542  0.76743810     0.00600
C769        C  0.78106378  0.77773272  0.96202770     0.02000
C770        C  0.79091975  0.78796996  0.92027518     0.04800
C771        C  0.77054904  0.78666868  0.89131637    -0.11300
C772        C  0.74031720  0.77591183  0.90324347     0.24100
C773        C  0.73149005  0.76274788  0.94358216    -0.11800
C774        C  0.75228617  0.76242116  0.97243719     0.05500
C775        C  0.71765776  0.77989631  0.87344912     0.27900
C776        C  0.70396702  0.80926187  0.86412656    -0.12500
C777        C  0.68150659  0.81310501  0.83736085     0.06000
C778        C  0.67235777  0.78745905  0.81931812    -0.08500
C779        C  0.68726317  0.75831127  0.82777821     0.06800
C780        C  0.71013788  0.75477781  0.85411618    -0.12800
Br781      Br  0.69037604  0.74646321  0.95964896    -0.04900
Br782      Br  0.83157979  0.80462428  0.90021172     0.00700
Br783      Br  0.66177832  0.85339654  0.82882557     0.01200
Br784      Br  0.73058679  0.71510569  0.86529048    -0.03300
Br785      Br  0.74228554  0.73834632  0.02492795     0.01300
Br786      Br  0.78326723  0.80100899  0.83480447    -0.02600
Br787      Br  0.71522756  0.84410128  0.88960492    -0.03400
Br788      Br  0.67400246  0.72157201  0.80879319     0.00600
C789        C  0.65513062  0.78256774  0.72940404     0.02000
C790        C  0.66094434  0.75699946  0.70729069     0.04800
C791        C  0.68089049  0.76071827  0.67067465    -0.11300
C792        C  0.69552055  0.78966080  0.65592977     0.24100
C793        C  0.68880768  0.81535745  0.67677421    -0.11800
C794        C  0.66753963  0.81219733  0.71188336     0.05500
C795        C  0.71822939  0.79310243  0.61880674     0.27900
C796        C  0.74811344  0.78106829  0.62078728    -0.12500
C797        C  0.76973304  0.78424379  0.58605648     0.06000
C798        C  0.76267701  0.80222616  0.54974253    -0.08500
C799        C  0.73281606  0.81431963  0.54787364     0.06800
C800        C  0.71034168  0.80885788  0.58183562    -0.12800
Br801      Br  0.70920045  0.85499237  0.65737939    -0.04900
Br802      Br  0.64114268  0.71704907  0.72459942     0.00700
Br803      Br  0.80851724  0.76267718  0.58845629     0.01200
Br804      Br  0.66866442  0.82270034  0.57781589    -0.03300
Br805      Br  0.65177581  0.84957251  0.73163817     0.01300
Br806      Br  0.68825649  0.72622076  0.64004581    -0.02600
Br807      Br  0.75977139  0.76115143  0.67169051    -0.03400
Br808      Br  0.72421949  0.83911962  0.99819886     0.00600
loop_ 
_geom_bond_atom_site_label_1 
_geom_bond_atom_site_label_2 
_geom_bond_distance 
_geom_bond_site_symmetry_2 
_ccdc_geom_bond_type 
N1            C5   1.373       .  A
N1            C2   1.365       .  A
N1          C385   1.458       .  S
C2            C3   1.381       .  A
C2          C345   1.478       .  S
C3            C4   1.363       .  A
C3            H6   1.079       .  S
C4            C5   1.382       .  A
C4            H7   1.077       .  S
C5          C374   1.497       .  S
N8           C12   1.365       .  A
N8            C9   1.355       .  A
N8          C798   1.448       .  S
C9           C10   1.378       .  A
C9          C334   1.484       .  S
C10          C11   1.376       .  A
C10          H13   1.084       .  S
C11          C12   1.387       .  A
C11          H14   1.081       .  S
C12         C365   1.505       .  S
N15          C19   1.363       .  A
N15          C16   1.362       .  A
N15         C285   1.448       .  S
C16          C17   1.379       .  A
C16         C265   1.488       .  S
C17          C18   1.374       .  A
C17          H20   1.084       .  S
C18          C19   1.386       .  A
C18          H21   1.082       .  S
C19         C305   1.491       .  S
N22          C26   1.364       .  A
N22          C23   1.359       .  A
N22         C314   1.444       .  S
C23          C24   1.378       .  A
C23         C245   1.488       .  S
C24          C25   1.377       .  A
C24          H27   1.081       .  S
C25          C26   1.388       .  A
C25          H28   1.078       .  S
C26         C294   1.498       .  S
N29          C33   1.366       .  A
N29          C30   1.365       .  A
N29         C214   1.449       .  S
C30          C31   1.379       .  A
C30         C194   1.494       .  S
C31          C32   1.373       .  A
C31          H34   1.084       .  S
C32          C33   1.386       .  A
C32          H35   1.083       .  S
C33         C225   1.497       .  S
N36          C40   1.365       .  A
N36          C37   1.365   1_565  A
N36         C234   1.450       .  S
C37          C38   1.379       .  A
C37         C174   1.494       .  S
C38          C39   1.373       .  A
C38          H41   1.082       .  S
C39          C40   1.386   1_545  A
C39          H42   1.081       .  S
C40         C205   1.495       .  S
O43         Ni51   1.898       .  S
O43          C53   1.278       .  A
O44         Ni51   1.907       .  S
O44          C54   1.277       .  A
O45         Ni51   1.912       .  S
O45          C55   1.282       .  A
O46         Ni51   1.912       .  S
O46          C56   1.281       .  A
O47         Ni52   1.919       .  S
O47          C56   1.281   1_556  A
O48         Ni52   1.922       .  S
O48          C55   1.280   1_556  A
O49        Ni456   1.937       .  S
O49         C458   1.285       .  A
O50         Ni52   1.933       .  S
O50          C53   1.284   1_556  A
Ni51        Ni52   2.385   1_554  S
Ni52        O453   1.937       .  S
C53         C145   1.484       .  S
C54         C325   1.476       .  S
C54         O453   1.285   1_554  A
C55         C165   1.485       .  S
C56         C254   1.486       .  S
O57         Ni65   1.915       .  S
O57          C67   1.282       .  A
O58         Ni65   1.920       .  S
O58          C68   1.283       .  A
O59         Ni65   1.890       .  S
O59          C69   1.275       .  A
O60         Ni65   1.891       .  S
O60          C70   1.275       .  A
O61         Ni66   1.937       .  S
O61          C70   1.285       .  A
O62         Ni66   1.944       .  S
O62          C69   1.287       .  A
O63         Ni66   1.913       .  S
O63          C68   1.279       .  A
O64         Ni66   1.910       .  S
O64          C67   1.279       .  A
Ni65        Ni66   2.387       .  S
C67         C134   1.484       .  S
C68         C354   1.480       .  S
C69         C185   1.477       .  S
C70         C274   1.475       .  S
N71          C75   1.369       .  A
N71          C72   1.370       .  A
N71          C94   1.456       .  S
C72          C73   1.379       .  A
C72         C154   1.490       .  S
C73          C74   1.367       .  A
C73          H76   1.085   1_455  S
C74          C75   1.383       .  A
C74          H77   1.082       .  S
C75         C114   1.491       .  S
N78          C82   1.367       .  A
N78          C79   1.367       .  A
N78         C105   1.455       .  S
C79          C80   1.380       .  A
C79         C125   1.494       .  S
C80          C81   1.370       .  A
C80          H83   1.077       .  S
C81          C82   1.385       .  A
C81          H84   1.084       .  S
C82          C85   1.494       .  S
C85          C86   1.422       .  A
C85          C90   1.412       .  A
C86         C491   1.405       .  A
C86         Br98   1.934       .  S
C87          C88   1.405       .  A
C87         C490   1.404       .  A
C87        Br102   1.936   1_556  S
C88         C493   1.410       .  A
C88          C91   1.489   1_556  S
C89          C90   1.414       .  A
C89         C492   1.410       .  A
C89         Br97   1.926       .  S
C90        Br101   1.924       .  S
C91          C92   1.408       .  A
C91          C96   1.404       .  A
C92          C93   1.413       .  A
C92        Br103   1.931       .  S
C93          C94   1.418       .  A
C93         Br99   1.919       .  S
C94          C95   1.417       .  A
C95          C96   1.408       .  A
C95        Br104   1.920       .  S
C96        Br100   1.932   1_554  S
C105        C106   1.416       .  A
C105        C110   1.419       .  A
C106        C107   1.415       .  A
C106       Br118   1.923       .  S
C107        C108   1.411       .  A
C107       Br122   1.930       .  S
C108        C109   1.404       .  A
C108        C111   1.493       .  S
C109        C110   1.407       .  A
C109       Br117   1.931       .  S
C110       Br121   1.925       .  S
C111        C112   1.407       .  A
C111        C116   1.410       .  A
C112        C113   1.406       .  A
C112       Br123   1.931       .  S
C113        C114   1.418       .  A
C113       Br119   1.937       .  S
C114        C115   1.413       .  A
C115        C116   1.414       .  A
C115       Br124   1.922       .  S
C116       Br120   1.928       .  S
C125        C126   1.417       .  A
C125        C130   1.420       .  A
C126        C127   1.405       .  A
C126       Br138   1.918       .  S
C127        C128   1.402       .  A
C127       Br142   1.935       .  S
C128        C129   1.405       .  A
C128        C131   1.481       .  S
C129        C130   1.409       .  A
C129       Br137   1.931       .  S
C130       Br141   1.927       .  S
C131        C132   1.405       .  A
C131        C136   1.408       .  A
C132        C133   1.409       .  A
C132       Br143   1.929       .  S
C133        C134   1.419       .  A
C133       Br139   1.932       .  S
C134        C135   1.417       .  A
C135        C136   1.403       .  A
C135       Br144   1.936       .  S
C136       Br140   1.935       .  S
C145        C146   1.414       .  A
C145        C150   1.416       .  A
C146        C147   1.403       .  A
C146       Br158   1.935       .  S
C147        C148   1.410       .  A
C147       Br162   1.933       .  S
C148        C149   1.409       .  A
C148        C151   1.487       .  S
C149        C150   1.412       .  A
C149       Br157   1.929   1_554  S
C150       Br161   1.929   1_554  S
C151        C152   1.407       .  A
C151        C156   1.409   1_655  A
C152        C153   1.409       .  A
C152       Br163   1.931       .  S
C153        C154   1.419   1_655  A
C153       Br159   1.932       .  S
C154        C155   1.412       .  A
C155        C156   1.407       .  A
C155       Br164   1.923       .  S
C156       Br160   1.933       .  S
C165        C166   1.415       .  A
C165        C170   1.417   1_554  A
C166        C167   1.403   1_655  A
C166       Br178   1.934       .  S
C167        C168   1.407       .  A
C167       Br182   1.933       .  S
C168        C169   1.407   1_554  A
C168        C171   1.483       .  S
C169        C170   1.412   1_455  A
C169       Br581   1.928       .  S
C170       Br585   1.929       .  S
C171        C172   1.406       .  A
C171        C176   1.404       .  A
C172        C173   1.412       .  A
C172       Br183   1.929   1_554  S
C173        C174   1.418       .  A
C173       Br179   1.926       .  S
C174        C175   1.415   1_545  A
C175        C176   1.404   1_565  A
C175       Br184   1.919       .  S
C176       Br180   1.936   1_545  S
Br177       C573   1.928       .  S
Br181       C574   1.929       .  S
C185        C186   1.409       .  A
C185        C190   1.411       .  A
C186        C187   1.412       .  A
C186       Br198   1.927       .  S
C187        C188   1.412       .  A
C187       Br202   1.928       .  S
C188        C189   1.410       .  A
C188        C191   1.489       .  S
C189        C190   1.404       .  A
C189       Br197   1.933       .  S
C190       Br201   1.934       .  S
C191        C192   1.408       .  A
C191        C196   1.407       .  A
C192        C193   1.408       .  A
C192       Br203   1.935       .  S
C193        C194   1.415       .  A
C193       Br199   1.922       .  S
C194        C195   1.416       .  A
C195        C196   1.409       .  A
C195       Br204   1.924       .  S
C196       Br200   1.931       .  S
C205        C206   1.413       .  A
C205        C210   1.421       .  A
C206        C207   1.415       .  A
C206       Br218   1.924       .  S
C207        C208   1.410       .  A
C207       Br222   1.927       .  S
C208        C209   1.405       .  A
C208        C211   1.489       .  S
C209        C210   1.405       .  A
C209       Br217   1.935       .  S
C210       Br221   1.933       .  S
C211        C212   1.406       .  A
C211        C216   1.411       .  A
C212        C213   1.404       .  A
C212       Br223   1.932       .  S
C213        C214   1.415       .  A
C213       Br219   1.926       .  S
C214        C215   1.412       .  A
C215        C216   1.414       .  A
C215       Br224   1.921       .  S
C216       Br220   1.928       .  S
C225        C226   1.414       .  A
C225        C230   1.420       .  A
C226        C227   1.414       .  A
C226       Br238   1.921       .  S
C227        C228   1.409       .  A
C227       Br242   1.929       .  S
C228        C229   1.405       .  A
C228        C231   1.490       .  S
C229        C230   1.406       .  A
C229       Br237   1.934       .  S
C230       Br241   1.931       .  S
C231        C232   1.406       .  A
C231        C640   1.411       .  A
C232        C637   1.408       .  A
C232       Br243   1.931       .  S
C233        C234   1.417       .  A
C233        C636   1.408   1_554  A
C233       Br239   1.927       .  S
C234        C235   1.411       .  A
C235        C236   1.411       .  A
C235       Br244   1.921       .  S
C236        C635   1.411       .  A
C236       Br240   1.930       .  S
C245        C246   1.415       .  A
C245        C250   1.414       .  A
C246        C247   1.409       .  A
C246       Br258   1.921       .  S
C247        C248   1.404       .  A
C247       Br262   1.929       .  S
C248        C249   1.405       .  A
C248        C251   1.480       .  S
C249        C250   1.403       .  A
C249       Br257   1.934       .  S
C250       Br261   1.922       .  S
C251        C252   1.407       .  A
C251        C256   1.404       .  A
C252        C253   1.403       .  A
C252       Br263   1.935       .  S
C253        C254   1.416       .  A
C253       Br259   1.933       .  S
C254        C255   1.421       .  A
C255        C256   1.410       .  A
C255       Br668   1.932   1_554  S
C256       Br260   1.930   1_554  S
Br264       C659   1.932       .  S
C265        C266   1.414       .  A
C265        C270   1.414       .  A
C266        C267   1.408       .  A
C266       Br278   1.926       .  S
C267        C268   1.407       .  A
C267       Br282   1.931       .  S
C268        C269   1.407       .  A
C268        C271   1.483       .  S
C269        C270   1.405       .  A
C269       Br277   1.936       .  S
C270       Br281   1.922       .  S
C271        C272   1.409       .  A
C271        C276   1.411       .  A
C272        C273   1.399       .  A
C272       Br283   1.937       .  S
C273        C274   1.412       .  A
C273       Br279   1.931       .  S
C274        C275   1.410       .  A
C275        C276   1.412       .  A
C275       Br284   1.928       .  S
C276       Br280   1.928       .  S
C285        C286   1.411       .  A
C285        C290   1.415       .  A
C286        C287   1.411       .  A
C286       Br298   1.922       .  S
C287        C288   1.411       .  A
C287       Br302   1.930       .  S
C288        C289   1.405       .  A
C288        C291   1.487       .  S
C289        C290   1.405       .  A
C289       Br297   1.931       .  S
C290       Br301   1.925       .  S
C291        C292   1.404       .  A
C291        C296   1.408       .  A
C292        C293   1.406       .  A
C292       Br303   1.936       .  S
C293        C294   1.423       .  A
C293       Br299   1.932       .  S
C294        C295   1.415       .  A
C295        C296   1.413       .  A
C295       Br304   1.920       .  S
C296       Br300   1.930       .  S
C305        C306   1.413       .  A
C305        C310   1.418       .  A
C306        C307   1.414       .  A
C306       Br318   1.923       .  S
C307        C712   1.410       .  A
C307       Br322   1.928       .  S
C308        C309   1.405   1_556  A
C308        C711   1.409       .  A
C308        C311   1.486   1_556  S
C309        C714   1.402   1_554  A
C309       Br317   1.935       .  S
C310        C713   1.402       .  A
C310       Br321   1.932       .  S
C311        C312   1.406       .  A
C311        C316   1.411       .  A
C312        C313   1.403       .  A
C312       Br323   1.931       .  S
C313        C314   1.414       .  A
C313       Br319   1.929       .  S
C314        C315   1.408       .  A
C315        C316   1.412       .  A
C315       Br324   1.920       .  S
C316       Br320   1.928       .  S
C325        C326   1.410       .  A
C325        C330   1.408   1_545  A
C326        C327   1.411   1_545  A
C326       Br338   1.925       .  S
C327        C328   1.410       .  A
C327       Br342   1.928       .  S
C328        C329   1.409       .  A
C328        C331   1.485       .  S
C329        C330   1.404       .  A
C329       Br741   1.933       .  S
C330       Br745   1.925   1_565  S
C331        C332   1.410       .  A
C331        C740   1.406   1_554  A
C332        C333   1.410       .  A
C332       Br343   1.929       .  S
C333        C738   1.410       .  A
C333       Br339   1.923       .  S
C334        C335   1.414       .  A
C334        C737   1.410       .  A
C335        C336   1.405       .  A
C335       Br344   1.926       .  S
C336        C735   1.406       .  A
C336       Br340   1.932       .  S
Br337       C733   1.933       .  S
Br341       C734   1.925   1_545  S
C345        C346   1.415       .  A
C345        C350   1.409       .  A
C346        C347   1.400       .  A
C346       Br358   1.935       .  S
C347        C348   1.406       .  A
C347       Br362   1.930       .  S
C348        C349   1.409       .  A
C348        C351   1.482       .  S
C349        C350   1.411       .  A
C349       Br357   1.926       .  S
C350       Br361   1.925       .  S
C351        C352   1.406       .  A
C351        C356   1.410       .  A
C352        C353   1.408       .  A
C352       Br363   1.931       .  S
C353        C354   1.418       .  A
C353       Br359   1.932       .  S
C354        C355   1.409       .  A
C355        C356   1.407       .  A
C355       Br364   1.930       .  S
C356       Br360   1.930       .  S
C365        C366   1.432       .  A
C365        C370   1.413       .  A
C366        C367   1.408       .  A
C366       Br378   1.937       .  S
C367        C368   1.402       .  A
C367       Br382   1.937       .  S
C368        C369   1.409       .  A
C368        C371   1.488       .  S
C369        C370   1.410       .  A
C369       Br377   1.929       .  S
C370       Br381   1.927       .  S
C371        C372   1.406       .  A
C371        C376   1.404       .  A
C372        C373   1.407       .  A
C372       Br383   1.933       .  S
C373        C374   1.421       .  A
C373       Br379   1.931       .  S
C374        C375   1.418       .  A
C375        C376   1.410       .  A
C375       Br384   1.914       .  S
C376       Br380   1.932       .  S
C385        C386   1.421       .  A
C385        C390   1.416       .  A
C386        C387   1.415       .  A
C386       Br398   1.923       .  S
C387        C388   1.409       .  A
C387       Br402   1.933       .  S
C388        C389   1.405       .  A
C388        C391   1.493       .  S
C389        C390   1.407       .  A
C389       Br397   1.932       .  S
C390       Br401   1.921       .  S
C391        C392   1.407       .  A
C391        C396   1.413       .  A
C392        C393   1.406       .  A
C392       Br403   1.932       .  S
C393        C394   1.419       .  A
C393       Br399   1.931       .  S
C394        N412   1.448       .  S
C394        C395   1.406       .  A
C395        C396   1.412       .  A
C395       Br808   1.918   1_554  S
C396       Br400   1.928       .  S
Br404       C799   1.919       .  S
N405        C409   1.374       .  A
N405        C406   1.366       .  A
N405        C789   1.458       .  S
C406        C407   1.381       .  A
C406        C749   1.478       .  S
C407        C408   1.363       .  A
C407        H410   1.079       .  S
C408        C409   1.382       .  A
C408        H411   1.077       .  S
C409        C778   1.497       .  S
N412        C416   1.365   1_554  A
N412        C413   1.354       .  A
C413        C414   1.378       .  A
C413        C738   1.485       .  S
C414        C415   1.376   1_554  A
C414        H417   1.084       .  S
C415        C416   1.387       .  A
C415        H418   1.081       .  S
C416        C769   1.505       .  S
N419        C423   1.363       .  A
N419        C420   1.362       .  A
N419        C689   1.447       .  S
C420        C421   1.379       .  A
C420        C669   1.488       .  S
C421        C422   1.374       .  A
C421        H424   1.084       .  S
C422        C423   1.387       .  A
C422        H425   1.082       .  S
C423        C709   1.492       .  S
N426        C430   1.364       .  A
N426        C427   1.360       .  A
N426        C718   1.445       .  S
C427        C428   1.378       .  A
C427        C649   1.488       .  S
C428        C429   1.376       .  A
C428        H431   1.081       .  S
C429        C430   1.388       .  A
C429        H432   1.079       .  S
C430        C698   1.498       .  S
N433        C437   1.366       .  A
N433        C434   1.365       .  A
N433        C618   1.449       .  S
C434        C435   1.379       .  A
C434        C598   1.494       .  S
C435        C436   1.374       .  A
C435        H438   1.084       .  S
C436        C437   1.386       .  A
C436        H439   1.083       .  S
C437        C629   1.497       .  S
N440        C444   1.365       .  A
N440        C441   1.365   1_565  A
N440        C638   1.450       .  S
C441        C442   1.379       .  A
C441        C578   1.493       .  S
C442        C443   1.373       .  A
C442        H445   1.082       .  S
C443        C444   1.386   1_545  A
C443        H446   1.081       .  S
C444        C609   1.494       .  S
O447       Ni455   1.899       .  S
O447        C457   1.278       .  A
O448       Ni455   1.908       .  S
O448        C458   1.277       .  A
O449       Ni455   1.911       .  S
O449        C459   1.282       .  A
O450       Ni455   1.911       .  S
O450        C460   1.281       .  A
O451       Ni456   1.920       .  S
O451        C460   1.281       .  A
O452       Ni456   1.922       .  S
O452        C459   1.281       .  A
O454       Ni456   1.933       .  S
O454        C457   1.284       .  A
Ni455      Ni456   2.384       .  S
C457        C549   1.485       .  S
C458        C729   1.477       .  S
C459        C569   1.484       .  S
C460        C658   1.486       .  S
O461       Ni469   1.916       .  S
O461        C471   1.282       .  A
O462       Ni469   1.921       .  S
O462        C472   1.284       .  A
O463       Ni469   1.890       .  S
O463        C473   1.275       .  A
O464       Ni469   1.891       .  S
O464        C474   1.275       .  A
O465       Ni470   1.938       .  S
O465        C474   1.285       .  A
O466       Ni470   1.945       .  S
O466        C473   1.287       .  A
O467       Ni470   1.912       .  S
O467        C472   1.279       .  A
O468       Ni470   1.910       .  S
O468        C471   1.279       .  A
Ni469      Ni470   2.387       .  S
C471        C538   1.484       .  S
C472        C758   1.481       .  S
C473        C589   1.477       .  S
C474        C678   1.475       .  S
N475        C479   1.369       .  A
N475        C476   1.370       .  A
N475        C498   1.456       .  S
C476        C477   1.379       .  A
C476        C558   1.491       .  S
C477        C478   1.367       .  A
C477        H480   1.085   1_455  S
C478        C479   1.383       .  A
C478        H481   1.082       .  S
C479        C518   1.491       .  S
N482        C486   1.367       .  A
N482        C483   1.367       .  A
N482        C509   1.455       .  S
C483        C484   1.380       .  A
C483        C529   1.493       .  S
C484        C485   1.370       .  A
C484        H487   1.077       .  S
C485        C486   1.385       .  A
C485        H488   1.084       .  S
C486        C489   1.494       .  S
C489        C490   1.422       .  A
C489        C494   1.412       .  A
C490       Br502   1.934       .  S
C491        C492   1.406       .  A
C491       Br506   1.936       .  S
C492        C495   1.490       .  S
C493        C494   1.414       .  A
C493       Br501   1.926       .  S
C494       Br505   1.924       .  S
C495        C496   1.408       .  A
C495        C500   1.404       .  A
C496        C497   1.413       .  A
C496       Br507   1.931       .  S
C497        C498   1.418       .  A
C497       Br503   1.919       .  S
C498        C499   1.417       .  A
C499        C500   1.408       .  A
C499       Br508   1.921       .  S
C500       Br504   1.932       .  S
C509        C510   1.416       .  A
C509        C514   1.419       .  A
C510        C511   1.415       .  A
C510       Br522   1.923       .  S
C511        C512   1.411       .  A
C511       Br526   1.930       .  S
C512        C513   1.404       .  A
C512        C515   1.493       .  S
C513        C514   1.407       .  A
C513       Br521   1.931       .  S
C514       Br525   1.925       .  S
C515        C516   1.407       .  A
C515        C520   1.410       .  A
C516        C517   1.406       .  A
C516       Br527   1.930       .  S
C517        C518   1.418       .  A
C517       Br523   1.937       .  S
C518        C519   1.412       .  A
C519        C520   1.415       .  A
C519       Br528   1.922       .  S
C520       Br524   1.928       .  S
C529        C530   1.417       .  A
C529        C534   1.420       .  A
C530        C531   1.405       .  A
C530       Br542   1.918       .  S
C531        C532   1.402       .  A
C531       Br546   1.935       .  S
C532        C533   1.405       .  A
C532        C535   1.481       .  S
C533        C534   1.409       .  A
C533       Br541   1.931       .  S
C534       Br545   1.927       .  S
C535        C536   1.405       .  A
C535        C540   1.408       .  A
C536        C537   1.409       .  A
C536       Br547   1.929       .  S
C537        C538   1.419       .  A
C537       Br543   1.932       .  S
C538        C539   1.417       .  A
C539        C540   1.403       .  A
C539       Br548   1.936       .  S
C540       Br544   1.935       .  S
C549        C550   1.414       .  A
C549        C554   1.416       .  A
C550        C551   1.404       .  A
C550       Br562   1.935       .  S
C551        C552   1.409       .  A
C551       Br566   1.933       .  S
C552        C553   1.409       .  A
C552        C555   1.487       .  S
C553        C554   1.411       .  A
C553       Br561   1.929   1_655  S
C554       Br565   1.929       .  S
C555        C556   1.407       .  A
C555        C560   1.408   1_655  A
C556        C557   1.409       .  A
C556       Br567   1.931       .  S
C557        C558   1.419   1_655  A
C557       Br563   1.932       .  S
C558        C559   1.413       .  A
C559        C560   1.407       .  A
C559       Br568   1.923       .  S
C560       Br564   1.934       .  S
C569        C570   1.416       .  A
C569        C574   1.417       .  A
C570        C571   1.402   1_655  A
C570       Br582   1.935       .  S
C571        C572   1.407       .  A
C571       Br586   1.934       .  S
C572        C573   1.407       .  A
C572        C575   1.483       .  S
C573        C574   1.412   1_455  A
C575        C576   1.406       .  A
C575        C580   1.404       .  A
C576        C577   1.412       .  A
C576       Br587   1.929       .  S
C577        C578   1.418       .  A
C577       Br583   1.926       .  S
C578        C579   1.415   1_545  A
C579        C580   1.404   1_565  A
C579       Br588   1.918       .  S
C580       Br584   1.936   1_545  S
C589        C590   1.409       .  A
C589        C594   1.411       .  A
C590        C591   1.412       .  A
C590       Br602   1.927       .  S
C591        C592   1.412       .  A
C591       Br606   1.928       .  S
C592        C593   1.410       .  A
C592        C595   1.489       .  S
C593        C594   1.404       .  A
C593       Br601   1.933       .  S
C594       Br605   1.933       .  S
C595        C596   1.408       .  A
C595        C600   1.407       .  A
C596        C597   1.408       .  A
C596       Br607   1.934       .  S
C597        C598   1.415       .  A
C597       Br603   1.922       .  S
C598        C599   1.416       .  A
C599        C600   1.410       .  A
C599       Br608   1.923       .  S
C600       Br604   1.931       .  S
C609        C610   1.413       .  A
C609        C614   1.420       .  A
C610        C611   1.415       .  A
C610       Br622   1.924       .  S
C611        C612   1.410       .  A
C611       Br626   1.927       .  S
C612        C613   1.406       .  A
C612        C615   1.489       .  S
C613        C614   1.405       .  A
C613       Br621   1.935       .  S
C614       Br625   1.933       .  S
C615        C616   1.406       .  A
C615        C620   1.411       .  A
C616        C617   1.405       .  A
C616       Br627   1.932       .  S
C617        C618   1.415       .  A
C617       Br623   1.926       .  S
C618        C619   1.411       .  A
C619        C620   1.414       .  A
C619       Br628   1.921       .  S
C620       Br624   1.928       .  S
C629        C630   1.414       .  A
C629        C634   1.421       .  A
C630        C631   1.414       .  A
C630       Br642   1.921       .  S
C631        C632   1.409       .  A
C631       Br646   1.929       .  S
C632        C633   1.405       .  A
C632        C635   1.490   1_556  S
C633        C634   1.406       .  A
C633       Br641   1.934   1_556  S
C634       Br645   1.931       .  S
C635        C636   1.406   1_554  A
C636       Br647   1.931       .  S
C637        C638   1.417       .  A
C637       Br643   1.927       .  S
C638        C639   1.412       .  A
C639        C640   1.411       .  A
C639       Br648   1.921       .  S
C640       Br644   1.930       .  S
C649        C650   1.415       .  A
C649        C654   1.414       .  A
C650        C651   1.408       .  A
C650       Br662   1.921       .  S
C651        C652   1.404       .  A
C651       Br666   1.929       .  S
C652        C653   1.405       .  A
C652        C655   1.480       .  S
C653        C654   1.404       .  A
C653       Br661   1.935       .  S
C654       Br665   1.922       .  S
C655        C656   1.407       .  A
C655        C660   1.404       .  A
C656        C657   1.403       .  A
C656       Br667   1.935       .  S
C657        C658   1.416       .  A
C657       Br663   1.933       .  S
C658        C659   1.421       .  A
C659        C660   1.410       .  A
C660       Br664   1.930       .  S
C669        C670   1.414       .  A
C669        C674   1.414       .  A
C670        C671   1.408       .  A
C670       Br682   1.926       .  S
C671        C672   1.407       .  A
C671       Br686   1.930       .  S
C672        C673   1.407       .  A
C672        C675   1.483       .  S
C673        C674   1.405       .  A
C673       Br681   1.936       .  S
C674       Br685   1.922       .  S
C675        C676   1.408       .  A
C675        C680   1.411       .  A
C676        C677   1.399       .  A
C676       Br687   1.937       .  S
C677        C678   1.412       .  A
C677       Br683   1.930       .  S
C678        C679   1.410       .  A
C679        C680   1.412       .  A
C679       Br688   1.927       .  S
C680       Br684   1.928       .  S
C689        C690   1.411       .  A
C689        C694   1.415       .  A
C690        C691   1.411       .  A
C690       Br702   1.921       .  S
C691        C692   1.411       .  A
C691       Br706   1.930       .  S
C692        C693   1.405       .  A
C692        C695   1.487       .  S
C693        C694   1.405       .  A
C693       Br701   1.931       .  S
C694       Br705   1.925       .  S
C695        C696   1.404       .  A
C695        C700   1.408       .  A
C696        C697   1.406       .  A
C696       Br707   1.936       .  S
C697        C698   1.422       .  A
C697       Br703   1.932       .  S
C698        C699   1.415       .  A
C699        C700   1.413       .  A
C699       Br708   1.920       .  S
C700       Br704   1.930       .  S
C709        C710   1.414       .  A
C709        C714   1.418       .  A
C710        C711   1.414       .  A
C710       Br722   1.922       .  S
C711       Br726   1.928       .  S
C712        C713   1.406       .  A
C712        C715   1.486       .  S
C713       Br721   1.935       .  S
C714       Br725   1.932       .  S
C715        C716   1.406       .  A
C715        C720   1.411       .  A
C716        C717   1.403       .  A
C716       Br727   1.931       .  S
C717        C718   1.414       .  A
C717       Br723   1.929       .  S
C718        C719   1.409       .  A
C719        C720   1.412       .  A
C719       Br728   1.921       .  S
C720       Br724   1.928       .  S
C729        C730   1.410       .  A
C729        C734   1.408   1_545  A
C730        C731   1.411   1_545  A
C730       Br742   1.925       .  S
C731        C732   1.410       .  A
C731       Br746   1.929       .  S
C732        C733   1.409       .  A
C732        C735   1.485       .  S
C733        C734   1.404       .  A
C735        C736   1.410       .  A
C736        C737   1.410       .  A
C736       Br747   1.929       .  S
C737       Br743   1.923       .  S
C738        C739   1.414   1_554  A
C739        C740   1.405       .  A
C739       Br748   1.926       .  S
C740       Br744   1.932       .  S
C749        C750   1.415       .  A
C749        C754   1.409       .  A
C750        C751   1.400       .  A
C750       Br762   1.935       .  S
C751        C752   1.406       .  A
C751       Br766   1.929       .  S
C752        C753   1.410       .  A
C752        C755   1.483       .  S
C753        C754   1.411       .  A
C753       Br761   1.926       .  S
C754       Br765   1.925       .  S
C755        C756   1.406       .  A
C755        C760   1.410       .  A
C756        C757   1.408       .  A
C756       Br767   1.931       .  S
C757        C758   1.418       .  A
C757       Br763   1.932       .  S
C758        C759   1.409       .  A
C759        C760   1.407       .  A
C759       Br768   1.930       .  S
C760       Br764   1.929       .  S
C769        C770   1.432       .  A
C769        C774   1.413       .  A
C770        C771   1.408       .  A
C770       Br782   1.937       .  S
C771        C772   1.402       .  A
C771       Br786   1.936       .  S
C772        C773   1.409       .  A
C772        C775   1.488       .  S
C773        C774   1.411       .  A
C773       Br781   1.929       .  S
C774       Br785   1.927   1_556  S
C775        C776   1.406       .  A
C775        C780   1.405       .  A
C776        C777   1.407       .  A
C776       Br787   1.933       .  S
C777        C778   1.421       .  A
C777       Br783   1.932       .  S
C778        C779   1.418       .  A
C779        C780   1.411       .  A
C779       Br788   1.915       .  S
C780       Br784   1.932       .  S
C789        C790   1.422       .  A
C789        C794   1.416       .  A
C790        C791   1.415       .  A
C790       Br802   1.923       .  S
C791        C792   1.409       .  A
C791       Br806   1.933       .  S
C792        C793   1.405       .  A
C792        C795   1.494       .  S
C793        C794   1.408       .  A
C793       Br801   1.932       .  S
C794       Br805   1.921       .  S
C795        C796   1.407       .  A
C795        C800   1.413       .  A
C796        C797   1.407       .  A
C796       Br807   1.932       .  S
C797        C798   1.420       .  A
C797       Br803   1.931       .  S
C798        C799   1.407       .  A
C799        C800   1.413       .  A
C800       Br804   1.927       .  S
