geometry optimzed in LAMMPS
_audit_creation_date              2020-11-30 
_audit_creation_method            'lammps2cif' 
_symmetry_space_group_name_H-M    'P1' 
_symmetry_Int_Tables_number       1 
_symmetry_cell_setting            triclinic 
loop_ 
_symmetry_equiv_pos_as_xyz 
  x,y,z 
_cell_length_a                    33.1307006 
_cell_length_b                    33.16065046712626 
_cell_length_c                    33.26878239680714 
_cell_angle_alpha                 89.96311019184647 
_cell_angle_beta                  89.98869196175575 
_cell_angle_gamma                 90.04368173649523 
loop_ 
_atom_site_label 
_atom_site_type_symbol 
_atom_site_fract_x 
_atom_site_fract_y 
_atom_site_fract_z 
_atom_site_charge 
N1          N  0.69143853  0.93911606  0.37436415    -0.27000
N2          N  0.73056767  0.93211964  0.37061781    -0.34900
C3          C  0.73534664  0.89857350  0.34850272     0.01300
C4          C  0.69760321  0.88381593  0.33752839     0.07300
C5          C  0.67039538  0.91041592  0.35451292    -0.05800
H6          H  0.76436879  0.88670341  0.33942769     0.08000
H7          H  0.63791420  0.91005853  0.35124484     0.09200
Cu8        Cu  0.77650822  0.97023664  0.39269418     0.44200
Cu9        Cu  0.66933759  0.98971679  0.40304724     0.42000
Cu10       Cu  0.74390984  0.06146188  0.44108770     0.43900
N11         N  0.81668469  0.01224232  0.41846390    -0.34400
N12         N  0.80424668  0.04555160  0.43635947    -0.28700
C13         C  0.83577337  0.06348943  0.45458957    -0.04800
C14         C  0.87034388  0.04113567  0.44743861     0.07400
C15         C  0.85671696  0.00844688  0.42487529     0.01200
H16         H  0.83291750  0.08849205  0.47526975     0.08900
H17         H  0.87396256  0.98181362  0.41731929     0.08000
N18         N  0.68211095  0.07144415  0.44085172    -0.35900
N19         N  0.65527248  0.04536612  0.42715043    -0.28100
C20         C  0.61855154  0.06245001  0.42778065    -0.03300
C21         C  0.62219116  0.10129358  0.44269252     0.05300
C22         C  0.66305997  0.10580431  0.45072268     0.03400
H23         H  0.59180886  0.04833039  0.41561153     0.08500
H24         H  0.67826281  0.13258973  0.46143557     0.07300
O25         O  0.64765271  0.83512645  0.21125769    -0.72700
O26         O  0.65393203  0.75289188  0.29583526    -0.73700
O27         O  0.65570203  0.83937043  0.29638090    -0.62300
O28         O  0.65458712  0.74814921  0.21082365    -0.70700
O29         O  0.72052391  0.75774383  0.20509999    -0.70300
O30         O  0.72231582  0.83381204  0.29483852    -0.61500
O31         O  0.72018585  0.74677818  0.28937222    -0.74000
O32         O  0.71396160  0.84375192  0.21032989    -0.72800
Cu33       Cu  0.65055738  0.79389786  0.25364132     1.04600
Cu34       Cu  0.72162136  0.79569608  0.24987571     1.04300
C35         C  0.67837453  0.85406320  0.19853155     0.93500
C36         C  0.68639905  0.73459414  0.30432623     0.92600
C37         C  0.69084806  0.85051735  0.30868911     0.84800
C38         C  0.68894591  0.73861481  0.19527928     0.91100
N39         N  0.68253820  0.63261150  0.34464455    -0.27000
N40         N  0.64742348  0.64693523  0.35698125    -0.34900
C41         C  0.64616539  0.68652742  0.34829068     0.01300
C42         C  0.68196289  0.69786857  0.32938485     0.07300
C43         C  0.70434071  0.66263518  0.32767144    -0.05800
H44         H  0.61955858  0.70505726  0.35203943     0.08000
H45         H  0.73248477  0.65823617  0.31177058     0.09200
Cu46       Cu  0.59967607  0.61067781  0.37903653     0.44200
Cu47       Cu  0.69537222  0.57154724  0.34625147     0.42000
Cu48       Cu  0.61362862  0.50318165  0.37905739     0.43900
N49         N  0.55572467  0.56925027  0.39982819    -0.34400
N50         N  0.56109003  0.52977804  0.39968566    -0.28700
C51         C  0.53020911  0.51172573  0.41909173    -0.04800
C52         C  0.50346329  0.54105387  0.43220929     0.07400
C53         C  0.52088685  0.57716210  0.41916087     0.01200
H54         H  0.52965075  0.48004204  0.42630523     0.08900
H55         H  0.51032460  0.60729516  0.42581186     0.08000
N56         N  0.67098273  0.48484453  0.36254010    -0.35900
N57         N  0.70016345  0.50945347  0.35088661    -0.28100
C58         C  0.73375175  0.48787374  0.34431371    -0.03300
C59         C  0.72558429  0.44773714  0.35242054     0.05300
C60         C  0.68536844  0.44696285  0.36379897     0.03400
H61         H  0.76244216  0.50082186  0.33564746     0.08500
H62         H  0.66770459  0.42101157  0.37265186     0.07300
N63         N  0.69262496  0.64148746  0.14442601    -0.27000
N64         N  0.72967207  0.65472754  0.13763754    -0.34900
C65         C  0.73211560  0.69274505  0.15154511     0.01300
C66         C  0.69503915  0.70389876  0.16799779     0.07300
C67         C  0.67073777  0.67043273  0.16285423    -0.05800
H68         H  0.75981902  0.71002521  0.15253467     0.08000
H69         H  0.64057242  0.66614749  0.17457314     0.09200
Cu70       Cu  0.77708945  0.61824416  0.11482713     0.44200
Cu71       Cu  0.67579995  0.58283209  0.13329274     0.42000
Cu72       Cu  0.75439867  0.51249720  0.10144249     0.43900
N73         N  0.81920453  0.57532968  0.09285150    -0.34400
N74         N  0.81060703  0.53660220  0.08887085    -0.28700
C75         C  0.84133339  0.51768568  0.07020671    -0.04800
C76         C  0.87139702  0.54548428  0.06185686     0.07400
C77         C  0.85601293  0.58180003  0.07668765     0.01200
H78         H  0.83970451  0.48696578  0.05969535     0.08900
H79         H  0.86940712  0.61135408  0.07309771     0.08000
N80         N  0.69435015  0.49712805  0.10914375    -0.35900
N81         N  0.66615332  0.52289593  0.12044666    -0.28100
C82         C  0.63035181  0.50408370  0.12111271    -0.03300
C83         C  0.63602091  0.46451785  0.10927569     0.05300
C84         C  0.67708971  0.46108774  0.10221608     0.03400
H85         H  0.60242235  0.51839256  0.12994944     0.08500
H86         H  0.69317200  0.43467140  0.09189648     0.07300
N87         N  0.67514079  0.94620272  0.13785825    -0.27000
N88         N  0.63643437  0.93619948  0.13801048    -0.34900
C89         C  0.63262515  0.90116188  0.15815950     0.01300
C90         C  0.67052707  0.88858400  0.17129796     0.07300
C91         C  0.69673300  0.91804120  0.15782420    -0.05800
H92         H  0.60405960  0.88648774  0.16412974     0.08000
H93         H  0.72884972  0.91979757  0.16342024     0.09200
Cu94       Cu  0.58951250  0.97195767  0.11293169     0.44200
Cu95       Cu  0.69660482  0.99914580  0.11312622     0.42000
Cu96       Cu  0.62109586  0.06704335  0.07244466     0.43900
N97         N  0.54927008  0.01357112  0.08552436    -0.34400
N98         N  0.56174003  0.04851814  0.07103499    -0.28700
C99         C  0.53154032  0.06642388  0.05075814    -0.04800
C100        C  0.49744035  0.04243382  0.05294337     0.07400
C101        C  0.51022972  0.00874888  0.07479725     0.01200
H102        H  0.53575983  0.09240708  0.03158408     0.08900
H103        H  0.49343553  0.98106733  0.07897536     0.08000
N104        N  0.68195470  0.07975846  0.07427490    -0.35900
N105        N  0.70951982  0.05498397  0.08882638    -0.28100
C106        C  0.74585598  0.07273723  0.08635470    -0.03300
C107        C  0.74091894  0.11063331  0.06955876     0.05300
C108        C  0.69994671  0.11394358  0.06213318     0.03400
H109        H  0.77360318  0.05946231  0.09723054     0.08500
H110        H  0.68410568  0.13917913  0.04894325     0.07300
C111        C  0.46395249  0.04298194  0.02315354     0.02500
C112        C  0.43258075  0.07229696  0.02220089     0.02500
C113        C  0.40299120  0.06921609  0.99205757    -0.18000
C114        C  0.40337462  0.03870078  0.96267172     0.02500
C115        C  0.43492631  0.00955259  0.96350585     0.02500
C116        C  0.46439371  0.01241519  0.99382022    -0.18000
H117        H  0.48838884  0.99019144  0.99467996     0.04500
H118        H  0.37905045  0.09147356  0.99118536     0.04500
N119        N  0.18951019  0.13816932  0.85802769    -0.27000
N120        N  0.22766320  0.14935060  0.86160561    -0.34900
C121        C  0.23150748  0.18640185  0.84584132     0.01300
C122        C  0.19428258  0.19899538  0.83115818     0.07300
C123        C  0.16823533  0.16757229  0.83958659    -0.05800
H124        H  0.26011722  0.20174382  0.84219358     0.08000
H125        H  0.13714734  0.16474361  0.83003763     0.09200
Cu126      Cu  0.27494551  0.11165885  0.88130268     0.44200
Cu127      Cu  0.17039434  0.08106463  0.87250543     0.42000
Cu128      Cu  0.24927257  0.00957665  0.90326227     0.43900
N129        N  0.31733606  0.06898991  0.90191029    -0.34400
N130        N  0.30722852  0.03151570  0.91076529    -0.28700
C131        C  0.33818982  0.01332288  0.92971388    -0.04800
C132        C  0.37028940  0.04005650  0.93230544     0.07400
C133        C  0.35552111  0.07520030  0.91443682     0.01200
H134        H  0.33534530  0.98476355  0.94498319     0.08900
H135        H  0.37004898  0.10443688  0.91465444     0.08000
N136        N  0.18895529  0.99521574  0.89607928    -0.35900
N137        N  0.16071118  0.02124141  0.88542340    -0.28100
C138        C  0.12481360  0.00262616  0.88523706    -0.03300
C139        C  0.13058910  0.96289844  0.89633145     0.05300
C140        C  0.17166660  0.95920960  0.90294195     0.03400
H141        H  0.09657316  0.01720123  0.87782767     0.08500
H142        H  0.18775645  0.93287632  0.91344544     0.07300
N143        N  0.18004744  0.44065141  0.86092392    -0.27000
N144        N  0.14256772  0.42772607  0.86561984    -0.34900
C145        C  0.13963684  0.39106969  0.84863729     0.01300
C146        C  0.17683825  0.38049506  0.83228377     0.07300
C147        C  0.20181522  0.41274723  0.84083250    -0.05800
H148        H  0.11162942  0.37452761  0.84566314     0.08000
H149        H  0.23240685  0.41717687  0.83032899     0.09200
Cu150      Cu  0.09514775  0.46318642  0.88923691     0.44200
Cu151      Cu  0.19730138  0.49830041  0.87615520     0.42000
Cu152      Cu  0.11730034  0.56880001  0.90401930     0.43900
N153        N  0.05268131  0.50535385  0.91119733    -0.34400
N154        N  0.06100635  0.54407035  0.91570869    -0.28700
C155        C  0.02998816  0.56243449  0.93440554    -0.04800
C156        C  0.99999031  0.53430419  0.94204608     0.07400
C157        C  0.01579881  0.49833735  0.92693925     0.01200
H158        H  0.03148043  0.59288949  0.94557002     0.08900
H159        H  0.00263584  0.46862588  0.93004546     0.08000
N160        N  0.17770210  0.58431846  0.89859454    -0.35900
N161        N  0.20641728  0.55830556  0.88929490    -0.28100
C162        C  0.24218728  0.57717595  0.88974258    -0.03300
C163        C  0.23597400  0.61713935  0.89980383     0.05300
C164        C  0.19460885  0.62062267  0.90520969     0.03400
H165        H  0.27060717  0.56274972  0.88276646     0.08500
H166        H  0.17797126  0.64716076  0.91421312     0.07300
O167        O  0.21813812  0.33633844  0.79044834    -0.72700
O168        O  0.21943606  0.24333541  0.70704747    -0.73700
O169        O  0.22454944  0.32984283  0.70550816    -0.62300
O170        O  0.22115990  0.25037338  0.79193566    -0.70700
O171        O  0.15463163  0.24410768  0.78873778    -0.70300
O172        O  0.15802476  0.33676892  0.70504501    -0.61500
O173        O  0.15302138  0.25043148  0.70370360    -0.74000
O174        O  0.15151695  0.33029782  0.79021282    -0.72800
Cu175      Cu  0.22318934  0.28997377  0.74875406     1.04600
Cu176      Cu  0.15190156  0.29047549  0.74683110     1.04300
C177        C  0.18315501  0.34727441  0.80335264     0.93500
C178        C  0.18494139  0.23246693  0.69278459     0.92600
C179        C  0.19325379  0.34750715  0.69253908     0.84800
C180        C  0.18897623  0.23306201  0.80313112     0.91100
N181        N  0.18441558  0.13761189  0.63709048    -0.27000
N182        N  0.14629046  0.14879660  0.63333377    -0.34900
C183        C  0.14221584  0.18550117  0.64993661     0.01300
C184        C  0.17932928  0.19798632  0.66512086     0.07300
C185        C  0.20545391  0.16672131  0.65631978    -0.05800
H186        H  0.11362249  0.20089660  0.65326480     0.08000
H187        H  0.23658815  0.16396365  0.66571905     0.09200
Cu188      Cu  0.09979495  0.11143234  0.61087608     0.44200
Cu189      Cu  0.20390557  0.08087497  0.62086546     0.42000
Cu190      Cu  0.12689061  0.00994019  0.58505396     0.43900
N191        N  0.05832748  0.06859644  0.58841142    -0.34400
N192        N  0.06880027  0.03140371  0.57882007    -0.28700
C193        C  0.03769225  0.01282720  0.56048249    -0.04800
C194        C  0.00531750  0.03913596  0.55874815     0.07400
C195        C  0.01985645  0.07435011  0.57658787     0.01200
H196        H  0.04027429  0.98408961  0.54551419     0.08900
H197        H  0.00468629  0.10322436  0.57736466     0.08000
N198        N  0.18691048  0.99570985  0.59344734    -0.35900
N199        N  0.21455318  0.02136008  0.60635197    -0.28100
C200        C  0.25016360  0.00234578  0.60883662    -0.03300
C201        C  0.24487213  0.96281731  0.59654366     0.05300
C202        C  0.20427295  0.95967484  0.58723039     0.03400
H203        H  0.27753324  0.01636998  0.61966598     0.08500
H204        H  0.18843481  0.93330733  0.57637820     0.07300
N205        N  0.19464286  0.43792211  0.62956574    -0.27000
N206        N  0.23364393  0.42930731  0.63104899    -0.34900
C207        C  0.23803747  0.39488026  0.65196816     0.01300
C208        C  0.20025553  0.38129609  0.66435318     0.07300
C209        C  0.17342469  0.40944703  0.64954621    -0.05800
H210        H  0.26691827  0.38149082  0.65919757     0.08000
H211        H  0.14113933  0.41023358  0.65435326     0.09200
Cu212      Cu  0.28051466  0.46595250  0.60738307     0.44200
Cu213      Cu  0.17226050  0.48959770  0.60330248     0.42000
Cu214      Cu  0.24831213  0.55774274  0.56233602     0.43900
N215        N  0.32125726  0.50776524  0.58117818    -0.34400
N216        N  0.30864469  0.54188663  0.56502503    -0.28700
C217        C  0.33968658  0.56040833  0.54648699    -0.04800
C218        C  0.37429994  0.53750091  0.55133239     0.07400
C219        C  0.36104685  0.50391593  0.57307516     0.01200
H220        H  0.33622747  0.58616631  0.52683107     0.08900
H221        H  0.37829974  0.47686232  0.57896259     0.08000
N222        N  0.18693580  0.56919443  0.56241811    -0.35900
N223        N  0.15936581  0.54464920  0.57744489    -0.28100
C224        C  0.12309467  0.56258535  0.57545838    -0.03300
C225        C  0.12796098  0.60031931  0.55817686     0.05300
C226        C  0.16891803  0.60334041  0.55030431     0.03400
H227        H  0.09577384  0.54984445  0.58792668     0.08500
H228        H  0.18485801  0.62896438  0.53792761     0.07300
C229        C  0.93324580  0.50894945  0.03148393     0.02500
C230        C  0.90478598  0.54105689  0.03190044     0.02500
C231        C  0.90753975  0.57069217  0.00180656    -0.18000
C232        C  0.93723687  0.56974538  0.97160826     0.02500
C233        C  0.96620547  0.53812316  0.97164407     0.02500
C234        C  0.96334204  0.50833522  0.00161579    -0.18000
H235        H  0.98511289  0.48393020  0.00182257     0.04500
H236        H  0.88572095  0.59505429  0.00152620     0.04500
O237        O  0.65189906  0.75155486  0.70088356    -0.72700
O238        O  0.72819176  0.75117367  0.78998354    -0.73700
O239        O  0.64200422  0.75716480  0.78585248    -0.62300
O240        O  0.73814848  0.75425474  0.70519114    -0.70700
O241        O  0.73278429  0.82081336  0.70361199    -0.70300
O242        O  0.64949770  0.82355322  0.78652346    -0.61500
O243        O  0.73560922  0.81758768  0.78885554    -0.74000
O244        O  0.64640222  0.81814544  0.70125373    -0.72800
Cu245      Cu  0.68998694  0.75115122  0.74552039     1.04600
Cu246      Cu  0.69112263  0.82239550  0.74500781     1.04300
C247        C  0.63554324  0.78339969  0.68765511     0.93500
C248        C  0.74553110  0.78269548  0.80275570     0.92600
C249        C  0.63119164  0.79227579  0.79859417     0.84800
C250        C  0.75017048  0.78883068  0.69209559     0.91100
N251        N  0.53720294  0.79547711  0.85618627    -0.27000
N252        N  0.54866640  0.83367870  0.85846132    -0.34900
C253        C  0.58492309  0.83697335  0.84052648     0.01300
C254        C  0.59675788  0.79933029  0.82612621     0.07300
C255        C  0.56563777  0.77372844  0.83674442    -0.05800
H256        H  0.60063057  0.86526598  0.83616356     0.08000
H257        H  0.56259894  0.74225347  0.82876090     0.09200
Cu258      Cu  0.51273300  0.88141772  0.88165107     0.44200
Cu259      Cu  0.48124746  0.77559727  0.87494473     0.42000
Cu260      Cu  0.41156921  0.85391591  0.90677701     0.43900
N261        N  0.46985080  0.92305421  0.90472010    -0.34400
N262        N  0.43251448  0.91210877  0.91338294    -0.28700
C263        C  0.41321086  0.94261792  0.93183209    -0.04800
C264        C  0.43897843  0.97534986  0.93460903     0.07400
C265        C  0.47492686  0.96142511  0.91743679     0.01200
H266        H  0.38437363  0.93919784  0.94647878     0.08900
H267        H  0.50362470  0.97702320  0.91743506     0.08000
N268        N  0.39658806  0.79370952  0.90228624    -0.35900
N269        N  0.42205423  0.76512108  0.89132888    -0.28100
C270        C  0.40268345  0.72955143  0.89127700    -0.03300
C271        C  0.36307117  0.73604964  0.90289113     0.05300
C272        C  0.36030381  0.77714119  0.90946266     0.03400
H273        H  0.41624939  0.70138077  0.88207349     0.08500
H274        H  0.33388620  0.79390217  0.91869045     0.07300
N275        N  0.83428725  0.78150047  0.86774160    -0.27000
N276        N  0.82543099  0.74260740  0.86622154    -0.34900
C277        C  0.79117652  0.73833020  0.84508980     0.01300
C278        C  0.77809171  0.77608313  0.83231815     0.07300
C279        C  0.80623998  0.80281560  0.84733197    -0.05800
H280        H  0.77801493  0.70948325  0.83735271     0.08000
H281        H  0.80770973  0.83493915  0.84182554     0.09200
Cu282      Cu  0.86264364  0.69568228  0.88797104     0.44200
Cu283      Cu  0.88698094  0.80296009  0.89236583     0.42000
Cu284      Cu  0.95915508  0.72674692  0.92371779     0.43900
N285        N  0.90578333  0.65507541  0.91132024    -0.34400
N286        N  0.94122328  0.66744472  0.92459057    -0.28700
C287        C  0.96001907  0.63705547  0.94361919    -0.04800
C288        C  0.93606656  0.60295645  0.94174304     0.07400
C289        C  0.90154987  0.61587301  0.92135841     0.01200
H290        H  0.98646536  0.64119823  0.96216862     0.08900
H291        H  0.87364242  0.59918295  0.91829835     0.08000
N292        N  0.97184869  0.78729553  0.92011133    -0.35900
N293        N  0.94543012  0.81504748  0.90928643    -0.28100
C294        C  0.96415036  0.85080115  0.90673415    -0.03300
C295        C  0.00436010  0.84528344  0.91644162     0.05300
C296        C  0.00814416  0.80461239  0.92478046     0.03400
H297        H  0.94994510  0.87808760  0.89595072     0.08500
H298        H  0.03545528  0.78841886  0.93228681     0.07300
N299        N  0.54255567  0.78097987  0.62965002    -0.27000
N300        N  0.55474442  0.74323341  0.62565736    -0.34900
C301        C  0.59149621  0.74009848  0.64247036     0.01300
C302        C  0.60279002  0.77741742  0.65810507     0.07300
C303        C  0.57091628  0.80267973  0.64920063    -0.05800
H304        H  0.60741387  0.71186287  0.64623600     0.08000
H305        H  0.56688702  0.83338404  0.65941269     0.09200
Cu306      Cu  0.51775438  0.69579448  0.60411690     0.44200
Cu307      Cu  0.48504443  0.79866678  0.61502767     0.42000
Cu308      Cu  0.41269808  0.71879649  0.58988360     0.43900
N309        N  0.47440821  0.65318092  0.58433738    -0.34400
N310        N  0.43573196  0.66183954  0.57996981    -0.28700
C311        C  0.41666657  0.63076383  0.56201272    -0.04800
C312        C  0.44440138  0.60048119  0.55451863     0.07400
C313        C  0.48072496  0.61600085  0.56926856     0.01200
H314        H  0.38608167  0.63232439  0.55093508     0.08900
H315        H  0.51030759  0.60265153  0.56574041     0.08000
N316        N  0.39857159  0.77929202  0.59421099    -0.35900
N317        N  0.42491776  0.80783529  0.60306759    -0.28100
C318        C  0.40610291  0.84353934  0.60355301    -0.03300
C319        C  0.36579489  0.83747820  0.59441569     0.05300
C320        C  0.36219827  0.79622314  0.58850623     0.03400
H321        H  0.42084958  0.87168518  0.61089017     0.08500
H322        H  0.33550890  0.77943734  0.58024676     0.07300
N323        N  0.84347737  0.78940862  0.63285006    -0.27000
N324        N  0.83376505  0.82810441  0.63267807    -0.34900
C325        C  0.79827951  0.83232685  0.65165020     0.01300
C326        C  0.78496768  0.79477462  0.66478094     0.07300
C327        C  0.81452450  0.76812367  0.65224580    -0.05800
H328        H  0.78404389  0.86112159  0.65735289     0.08000
H329        H  0.81592633  0.73610781  0.65835552     0.09200
Cu330      Cu  0.87052071  0.87519226  0.61056413     0.44200
Cu331      Cu  0.89737361  0.76901819  0.60910030     0.42000
Cu332      Cu  0.96672837  0.84744573  0.57178445     0.43900
N333        N  0.91192107  0.91758220  0.58723802    -0.34400
N334        N  0.94759235  0.90682366  0.57318610    -0.28700
C335        C  0.96518031  0.93865129  0.55511869    -0.04800
C336        C  0.93991751  0.97178564  0.55821645     0.07400
C337        C  0.90615721  0.95690473  0.57851383     0.01200
H338        H  0.99182959  0.93629606  0.53657443     0.08900
H339        H  0.87784822  0.97255867  0.58285971     0.08000
N340        N  0.97845040  0.78613735  0.57074035    -0.35900
N341        N  0.95348463  0.75809027  0.58417244    -0.28100
C342        C  0.97101564  0.72186020  0.58020524    -0.03300
C343        C  0.00897581  0.72711987  0.56353211     0.05300
C344        C  0.01249408  0.76840151  0.55775233     0.03400
H345        H  0.95751053  0.69389665  0.59020140     0.08500
H346        H  0.03781273  0.78473666  0.54530830     0.07300
N347        N  0.03229595  0.29324877  0.13303597    -0.27000
N348        N  0.04078533  0.33223548  0.13447459    -0.34900
C349        C  0.07573015  0.33691641  0.15434852     0.01300
C350        C  0.08998750  0.29935777  0.16629915     0.07300
C351        C  0.06152509  0.27224675  0.15225047    -0.05800
H352        H  0.08910190  0.36590819  0.16112821     0.08000
H353        H  0.06121736  0.23995257  0.15687501     0.09200
Cu354      Cu  0.00358857  0.37898640  0.11252807     0.44200
Cu355      Cu  0.97985833  0.27155116  0.10702349     0.42000
Cu356      Cu  0.91041308  0.34915597  0.06943948     0.43900
N357        N  0.96180901  0.42067421  0.08879553    -0.34400
N358        N  0.92719215  0.40893404  0.07305183    -0.28700
C359        C  0.90917397  0.44042739  0.05499060    -0.04800
C360        C  0.93291483  0.47444168  0.05991536     0.07400
C361        C  0.96642425  0.46038395  0.08116220     0.01200
H362        H  0.88346050  0.43752526  0.03518117     0.08900
H363        H  0.99410377  0.47687085  0.08650020     0.08000
N364        N  0.89915189  0.28799024  0.06799928    -0.35900
N365        N  0.92407027  0.25996570  0.08147500    -0.28100
C366        C  0.90591755  0.22385799  0.07873775    -0.03300
C367        C  0.86769934  0.22936195  0.06274776     0.05300
C368        C  0.86457171  0.27047511  0.05629184     0.03400
H369        H  0.91878844  0.19613988  0.09006362     0.08500
H370        H  0.83856634  0.28682780  0.04532945     0.07300
N371        N  0.33336432  0.28742788  0.13023581    -0.27000
N372        N  0.32052164  0.25011529  0.12437239    -0.34900
C373        C  0.28372561  0.24660082  0.14107744     0.01300
C374        C  0.27295020  0.28318689  0.15856452     0.07300
C375        C  0.30526389  0.30845796  0.15088713    -0.05800
H376        H  0.26737543  0.21843405  0.14340139     0.08000
H377        H  0.30972094  0.33855685  0.16261769     0.09200
Cu378      Cu  0.35653482  0.20318239  0.10047296     0.44200
Cu379      Cu  0.39148698  0.30498543  0.11649220     0.42000
Cu380      Cu  0.46198702  0.22527992  0.08625274     0.43900
N381        N  0.39906032  0.16043325  0.07951909    -0.34400
N382        N  0.43776500  0.16885179  0.07483223    -0.28700
C383        C  0.45650929  0.13733578  0.05736169    -0.04800
C384        C  0.42863112  0.10685450  0.05082415     0.07400
C385        C  0.39242477  0.12296837  0.06518257     0.01200
H386        H  0.48713395  0.13852048  0.04645917     0.08900
H387        H  0.36280631  0.10945972  0.06252157     0.08000
N388        N  0.47805581  0.28486696  0.09583002    -0.35900
N389        N  0.45232320  0.31348057  0.10617194    -0.28100
C390        C  0.47221867  0.34852572  0.10954041    -0.03300
C391        C  0.51253284  0.34187843  0.10093861     0.05300
C392        C  0.51511250  0.30107614  0.09231191     0.03400
H393        H  0.45825295  0.37667489  0.11823264     0.08500
H394        H  0.54163119  0.28434004  0.08339991     0.07300
O395        O  0.13707702  0.25850084  0.20572706    -0.72700
O396        O  0.23339159  0.25902111  0.28579067    -0.73700
O397        O  0.14704161  0.25365651  0.29063359    -0.62300
O398        O  0.22355093  0.25601169  0.20069709    -0.70700
O399        O  0.22932433  0.32255327  0.20279469    -0.70300
O400        O  0.13960203  0.32006670  0.28959866    -0.61500
O401        O  0.22628529  0.32541160  0.28806155    -0.74000
O402        O  0.14278831  0.32506678  0.20482083    -0.72800
Cu403      Cu  0.18533767  0.25441522  0.24569573     1.04600
Cu404      Cu  0.18449357  0.32563511  0.24638224     1.03100
C405        C  0.12510482  0.29325064  0.19314241     0.93500
C406        C  0.24458792  0.29373731  0.29916176     0.92600
C407        C  0.12935790  0.28512717  0.30315255     0.84800
C408        C  0.24010880  0.28819324  0.18830998     0.91100
N409        N  0.03267674  0.28013642  0.35425075    -0.27000
N410        N  0.04673531  0.24362511  0.36182992    -0.34900
C411        C  0.08498168  0.24178144  0.34833679     0.01300
C412        C  0.09544792  0.27877818  0.33136359     0.07300
C413        C  0.06138819  0.30237215  0.33585133    -0.05800
H414        H  0.10272876  0.21440649  0.34760563     0.08000
H415        H  0.05632585  0.33187777  0.32291291     0.09200
Cu416      Cu  0.01060051  0.19610847  0.38425074     0.44200
Cu417      Cu  0.97264947  0.29446465  0.36126989     0.42000
Cu418      Cu  0.90289906  0.21463717  0.39216355     0.43900
N419        N  0.96863111  0.15421166  0.40766680    -0.34400
N420        N  0.92947608  0.16126684  0.41071339    -0.28700
C421        C  0.91172592  0.13090609  0.43113987    -0.04800
C422        C  0.94090519  0.10287092  0.44154836     0.07400
C423        C  0.97658898  0.11886760  0.42596026     0.01200
H424        H  0.88062060  0.13134231  0.44072583     0.08900
H425        H  0.00668716  0.10692410  0.43009298     0.08000
N426        N  0.88525262  0.27165648  0.37377381    -0.35900
N427        N  0.91077408  0.30028534  0.36285119    -0.28100
C428        C  0.89003212  0.33359558  0.35319091    -0.03300
C429        C  0.84933612  0.32576350  0.35819115     0.05300
C430        C  0.84743717  0.28619961  0.37152674     0.03400
H431        H  0.90393327  0.36178960  0.34449053     0.08500
H432        H  0.82063751  0.26924304  0.37928615     0.07300
N433        N  0.33713427  0.29312180  0.35961220    -0.27000
N434        N  0.32856021  0.33212958  0.35904944    -0.34900
C435        C  0.29361076  0.33712870  0.33915353     0.01300
C436        C  0.27951860  0.29977355  0.32630659     0.07300
C437        C  0.30799916  0.27250372  0.33987546    -0.05800
H438        H  0.28016228  0.36620197  0.33293401     0.08000
H439        H  0.30841061  0.24033330  0.33452623     0.09200
Cu440      Cu  0.36580336  0.37852307  0.38209985     0.44200
Cu441      Cu  0.38951368  0.27017283  0.38490972     0.42000
Cu442      Cu  0.45852946  0.34607384  0.42467385     0.43900
N443        N  0.40843104  0.41904453  0.40671985    -0.34400
N444        N  0.44280142  0.40628547  0.42221711    -0.28700
C445        C  0.46175715  0.43716969  0.44040904    -0.04800
C446        C  0.43901897  0.47187504  0.43574625     0.07400
C447        C  0.40495222  0.45882798  0.41467837     0.01200
H448        H  0.48772191  0.43355033  0.45978340     0.08900
H449        H  0.37783356  0.47617766  0.40932044     0.08000
N450        N  0.46961187  0.28477463  0.42536321    -0.35900
N451        N  0.44492681  0.25708869  0.41081933    -0.28100
C452        C  0.46257768  0.22074338  0.41421536    -0.03300
C453        C  0.50033221  0.22578586  0.43157634     0.05300
C454        C  0.50344317  0.26686991  0.43851206     0.03400
H455        H  0.44945892  0.19293613  0.40333837     0.08500
H456        H  0.52845379  0.28302417  0.45174555     0.07300
C457        C  0.90638090  0.04098680  0.47394272     0.02500
C458        C  0.93798626  0.06994258  0.47210068     0.02500
C459        C  0.96928584  0.06751382  0.50055669    -0.18000
C460        C  0.97101137  0.03708174  0.52993833     0.02500
C461        C  0.94028316  0.00716483  0.53062321     0.02500
C462        C  0.90837194  0.01012261  0.50290415    -0.18000
H463        H  0.88455737  0.98765760  0.50365414     0.04500
H464        H  0.99304322  0.09000284  0.49996123     0.04500
C465        C  0.44051978  0.50678271  0.46372588     0.02500
C466        C  0.47089508  0.53719614  0.46325948     0.02500
C467        C  0.47032727  0.56658286  0.49376617    -0.18000
C468        C  0.44059525  0.56772567  0.52396788     0.02500
C469        C  0.40931571  0.53831979  0.52324958     0.02500
C470        C  0.41027858  0.50830620  0.49342219    -0.18000
H471        H  0.38682286  0.48544815  0.49334255     0.04500
H472        H  0.49374080  0.58940338  0.49400928     0.04500
C473        C  0.02753376  0.65482170  0.55437530    -0.21100
C474        C  0.03973986  0.69532455  0.55720255    -0.09100
C475        C  0.08129348  0.70429290  0.55653043     0.29800
C476        C  0.10965977  0.67322915  0.55528124    -0.21100
C477        C  0.09740806  0.63267397  0.55474067    -0.09100
C478        C  0.05592492  0.62377675  0.55313366     0.29800
F479        F  0.04258181  0.58518421  0.55039828    -0.19600
H480        H  0.99583316  0.64694985  0.55364366     0.18100
H481        H  0.14132623  0.68112230  0.55659785     0.18100
F482        F  0.09494220  0.74273681  0.55941946    -0.19600
C483        C  0.26399190  0.89005217  0.59707377    -0.21100
C484        C  0.27564283  0.93069209  0.59438747    -0.09100
C485        C  0.31676560  0.94009165  0.58978871     0.29800
C486        C  0.34547660  0.90948909  0.58891834    -0.21100
C487        C  0.33409008  0.86885287  0.59276038    -0.09100
C488        C  0.29279909  0.85934249  0.59633547     0.29800
F489        F  0.28002658  0.82072019  0.60058277    -0.19600
H490        H  0.23256024  0.88193101  0.60079726     0.18100
H491        H  0.37678391  0.91791051  0.58503621     0.18100
F492        F  0.32947896  0.97871489  0.58521930    -0.19600
C493        C  0.30722725  0.63702455  0.91272681    -0.21100
C494        C  0.26747240  0.64851983  0.90357449    -0.09100
C495        C  0.25903663  0.68950457  0.89655533     0.29800
C496        C  0.29016594  0.71795196  0.89737617    -0.21100
C497        C  0.33013835  0.70610434  0.90502448    -0.09100
C498        C  0.33827560  0.66539825  0.91350719     0.29800
F499        F  0.37607050  0.65293612  0.92310631    -0.19600
H500        H  0.31445812  0.60587829  0.91928210     0.18100
H501        H  0.28311866  0.74909792  0.89059535     0.18100
F502        F  0.22127031  0.70198554  0.88693335    -0.19600
C503        C  0.05991768  0.94462467  0.91321119    -0.21100
C504        C  0.09895068  0.93227801  0.90241008    -0.09100
C505        C  0.10697558  0.89095462  0.89745923     0.29800
C506        C  0.07621613  0.86272150  0.90291054    -0.21100
C507        C  0.03703831  0.87520168  0.91313785    -0.09100
C508        C  0.02922233  0.91645986  0.91863954     0.29800
F509        F  0.99220117  0.92966581  0.93006367    -0.19600
H510        H  0.05313220  0.97618852  0.91798857     0.18100
H511        H  0.08287151  0.83115802  0.89793670     0.18100
F512        F  0.14395069  0.87783942  0.88579473    -0.19600
C513        C  0.81279917  0.12932861  0.05816763    -0.21100
C514        C  0.77258476  0.14144642  0.06365843    -0.09100
C515        C  0.76362944  0.18288397  0.06543651     0.29800
C516        C  0.79463268  0.21130851  0.06350022    -0.21100
C517        C  0.83505911  0.19910030  0.05986880    -0.09100
C518        C  0.84377938  0.15777774  0.05608573     0.29800
F519        F  0.88214354  0.14471846  0.05031998    -0.19600
H520        H  0.82039420  0.09766899  0.05575975     0.18100
H521        H  0.78696006  0.24285837  0.06671701     0.18100
F522        F  0.72537453  0.19611694  0.07149689    -0.19600
C523        C  0.61517658  0.39214018  0.11011815    -0.21100
C524        C  0.60486847  0.43290569  0.10511199    -0.09100
C525        C  0.56451395  0.44306276  0.09677540     0.29800
C526        C  0.53506989  0.41313570  0.09488250    -0.21100
C527        C  0.54503648  0.37246626  0.10102994    -0.09100
C528        C  0.58560988  0.36209616  0.10819415     0.29800
F529        F  0.59664295  0.32331505  0.11504488    -0.19600
H530        H  0.64599576  0.38353152  0.11669432     0.18100
H531        H  0.50432606  0.42196404  0.08829828     0.18100
F532        F  0.55338292  0.48175673  0.08953650    -0.19600
C533        C  0.78102202  0.35079331  0.37755406    -0.21100
C534        C  0.81577671  0.35473538  0.35371589    -0.09100
C535        C  0.81891800  0.38769527  0.32725949     0.29800
C536        C  0.78880790  0.41701122  0.32628849    -0.21100
C537        C  0.75489658  0.41412591  0.35142901    -0.09100
C538        C  0.75083329  0.38019538  0.37660093     0.29800
F539        F  0.71902457  0.37634531  0.40198875    -0.19600
H540        H  0.77791414  0.32580163  0.39828419     0.18100
H541        H  0.79226319  0.44224281  0.30590227     0.18100
F542        F  0.85090814  0.39166239  0.30208600    -0.19600
C543        C  0.52018604  0.15367509  0.44103570    -0.21100
C544        C  0.53157637  0.19436957  0.43784175    -0.09100
C545        C  0.57294881  0.20417444  0.43894846     0.29800
C546        C  0.60196026  0.17382256  0.44183775    -0.21100
C547        C  0.59065969  0.13303736  0.44357661    -0.09100
C548        C  0.54926600  0.12328865  0.44402303     0.29800
F549        F  0.53663836  0.08452794  0.44758935    -0.19600
H550        H  0.48862022  0.14521440  0.44110150     0.18100
H551        H  0.63345011  0.18244356  0.44109817     0.18100
F552        F  0.58587345  0.24278675  0.43507930    -0.19600
loop_ 
_geom_bond_atom_site_label_1 
_geom_bond_atom_site_label_2 
_geom_bond_distance 
_geom_bond_site_symmetry_2 
_ccdc_geom_bond_type 
N1            N2   1.323       .  A
N1            C5   1.352       .  A
N1           Cu9   2.065       .  S
N2            C3   1.344       .  A
N2           Cu8   2.110       .  S
C3            C4   1.391       .  A
C3            H6   1.082       .  S
C4            C5   1.383       .  A
C4           C37   1.480       .  S
C5            H7   1.082       .  S
Cu8          N11   2.109   1_565  S
Cu9          N19   2.066   1_565  S
Cu10         N12   2.074       .  S
Cu10         N18   2.074       .  S
N11          N12   1.321       .  A
N11          C15   1.349       .  A
N12          C13   1.346       .  A
C13          C14   1.385       .  A
C13          H16   1.082       .  S
C14          C15   1.394       .  A
C14         C457   1.484       .  S
C15          H17   1.082   1_545  S
N18          N19   1.321       .  A
N18          C22   1.344       .  A
N19          C20   1.343       .  A
C20          C21   1.386       .  A
C20          H23   1.081       .  S
C21          C22   1.388       .  A
C21         C547   1.484       .  S
C22          H24   1.081       .  S
O25         Cu33   1.966       .  S
O25          C35   1.268       .  A
O26         Cu33   1.957       .  S
O26          C36   1.267       .  A
O27         Cu33   2.080       .  S
O27          C37   1.288       .  A
O28         Cu33   2.086       .  S
O28          C38   1.290       .  A
O29         Cu34   1.951       .  S
O29          C38   1.266       .  A
O30         Cu34   1.959       .  S
O30          C37   1.268       .  A
O31         Cu34   2.087       .  S
O31          C36   1.289       .  A
O32         Cu34   2.082       .  S
O32          C35   1.289       .  A
Cu33        Cu34   2.358       .  S
C35          C90   1.483       .  S
C36          C42   1.483       .  S
C38          C66   1.480       .  S
N39          N40   1.322       .  A
N39          C43   1.353       .  A
N39         Cu47   2.070       .  S
N40          C41   1.345       .  A
N40         Cu46   2.117       .  S
C41          C42   1.394       .  A
C41          H44   1.082       .  S
C42          C43   1.385       .  A
C43          H45   1.082       .  S
Cu46         N49   2.117       .  S
Cu47         N57   2.071       .  S
Cu48         N50   2.069       .  S
Cu48         N56   2.070       .  S
N49          N50   1.321       .  A
N49          C53   1.347       .  A
N50          C51   1.349       .  A
C51          C52   1.387       .  A
C51          H54   1.078       .  S
C52          C53   1.398       .  A
C52         C466   1.499       .  S
C53          H55   1.082       .  S
N56          N57   1.323       .  A
N56          C60   1.345       .  A
N57          C58   1.341       .  A
C58          C59   1.384       .  A
C58          H61   1.082       .  S
C59          C60   1.385       .  A
C59         C537   1.479       .  S
C60          H62   1.081       .  S
N63          N64   1.323       .  A
N63          C67   1.351       .  A
N63         Cu71   2.057       .  S
N64          C65   1.346       .  A
N64         Cu70   2.124       .  S
C65          C66   1.395       .  A
C65          H68   1.082       .  S
C66          C67   1.381       .  A
C67          H69   1.082       .  S
Cu70         N73   2.124       .  S
Cu71         N81   2.058       .  S
Cu72         N74   2.069       .  S
Cu72         N80   2.069       .  S
N73          N74   1.322       .  A
N73          C77   1.350       .  A
N74          C75   1.348       .  A
C75          C76   1.385       .  A
C75          H78   1.079       .  S
C76          C77   1.398       .  A
C76         C230   1.496       .  S
C77          H79   1.082       .  S
N80          N81   1.321       .  A
N80          C84   1.345       .  A
N81          C82   1.340       .  A
C82          C83   1.383       .  A
C82          H85   1.081       .  S
C83          C84   1.385       .  A
C83         C524   1.477       .  S
C84          H86   1.082       .  S
N87          N88   1.324       .  A
N87          C91   1.351       .  A
N87         Cu95   2.064       .  S
N88          C89   1.347       .  A
N88         Cu94   2.126       .  S
C89          C90   1.394       .  A
C89          H92   1.082       .  S
C90          C91   1.381       .  A
C91          H93   1.082       .  S
Cu94         N97   2.125   1_565  S
Cu95        N105   2.064   1_565  S
Cu96         N98   2.060       .  S
Cu96        N104   2.061       .  S
N97          N98   1.321       .  A
N97         C101   1.351       .  A
N98          C99   1.345       .  A
C99         C100   1.383       .  A
C99         H102   1.081       .  S
C100        C101   1.398       .  A
C100        C111   1.488       .  S
C101        H103   1.082   1_545  S
N104        N105   1.321       .  A
N104        C108   1.342       .  A
N105        C106   1.342       .  A
C106        C107   1.385       .  A
C106        H109   1.082       .  S
C107        C108   1.384       .  A
C107        C514   1.477       .  S
C108        H110   1.081       .  S
C111        C112   1.424       .  A
C111        C116   1.408   1_554  A
C112        C113   1.406   1_554  A
C112        C384   1.496       .  S
C113        C114   1.408       .  A
C113        H118   1.084       .  S
C114        C115   1.425       .  A
C114        C132   1.492       .  S
C115        C116   1.407       .  A
C115        C264   1.493   1_545  S
C116        H117   1.085   1_545  S
N119        N120   1.322       .  A
N119        C123   1.351       .  A
N119       Cu127   2.053       .  S
N120        C121   1.342       .  A
N120       Cu126   2.109       .  S
C121        C122   1.391       .  A
C121        H124   1.082       .  S
C122        C123   1.381       .  A
C122        C180   1.475       .  S
C123        H125   1.082       .  S
Cu126       N129   2.109       .  S
Cu127       N137   2.054       .  S
Cu128       N130   2.068       .  S
Cu128       N136   2.068   1_545  S
N129        N130   1.320       .  A
N129        C133   1.348       .  A
N130        C131   1.347       .  A
C131        C132   1.387       .  A
C131        H134   1.078   1_545  S
C132        C133   1.397       .  A
C133        H135   1.082       .  S
N136        N137   1.322   1_565  A
N136        C140   1.343       .  A
N137        C138   1.340       .  A
C138        C139   1.381   1_545  A
C138        H141   1.082       .  S
C139        C140   1.384       .  A
C139        C504   1.473       .  S
C140        H142   1.081       .  S
N143        N144   1.323       .  A
N143        C147   1.351       .  A
N143       Cu151   2.059       .  S
N144        C145   1.344       .  A
N144       Cu150   2.115       .  S
C145        C146   1.392       .  A
C145        H148   1.082       .  S
C146        C147   1.382       .  A
C146        C177   1.478       .  S
C147        H149   1.082       .  S
Cu150       N153   2.115       .  S
Cu151       N161   2.060       .  S
Cu152       N154   2.073       .  S
Cu152       N160   2.074       .  S
N153        N154   1.322       .  A
N153        C157   1.349       .  A
N154        C155   1.347       .  A
C155        C156   1.386   1_455  A
C155        H158   1.077       .  S
C156        C157   1.397   1_655  A
C156        C233   1.496       .  S
C157        H159   1.082       .  S
N160        N161   1.321       .  A
N160        C164   1.346       .  A
N161        C162   1.340       .  A
C162        C163   1.383       .  A
C162        H165   1.082       .  S
C163        C164   1.387       .  A
C163        C494   1.479       .  S
C164        H166   1.081       .  S
O167       Cu175   2.078       .  S
O167        C177   1.288       .  A
O168       Cu175   2.082       .  S
O168        C178   1.289       .  A
O169       Cu175   1.954       .  S
O169        C179   1.267       .  A
O170       Cu175   1.947       .  S
O170        C180   1.266       .  A
O171       Cu176   2.077       .  S
O171        C180   1.288       .  A
O172       Cu176   2.080       .  S
O172        C179   1.289       .  A
O173       Cu176   1.956       .  S
O173        C178   1.267       .  A
O174       Cu176   1.957       .  S
O174        C177   1.267       .  A
Cu175      Cu176   2.363       .  S
C178        C184   1.480       .  S
C179        C208   1.479       .  S
N181        N182   1.323       .  A
N181        C185   1.352       .  A
N181       Cu189   2.062       .  S
N182        C183   1.344       .  A
N182       Cu188   2.113       .  S
C183        C184   1.392       .  A
C183        H186   1.082       .  S
C184        C185   1.383       .  A
C185        H187   1.082       .  S
Cu188       N191   2.112       .  S
Cu189       N199   2.063       .  S
Cu190       N192   2.063       .  S
Cu190       N198   2.063   1_545  S
N191        N192   1.321       .  A
N191        C195   1.348       .  A
N192        C193   1.347       .  A
C193        C194   1.384       .  A
C193        H196   1.079   1_545  S
C194        C195   1.396       .  A
C194        C460   1.488   1_455  S
C195        H197   1.082       .  S
N198        N199   1.321   1_565  A
N198        C202   1.343       .  A
N199        C200   1.341       .  A
C200        C201   1.384   1_545  A
C200        H203   1.081       .  S
C201        C202   1.384       .  A
C201        C484   1.477       .  S
C202        H204   1.082       .  S
N205        N206   1.324       .  A
N205        C209   1.351       .  A
N205       Cu213   2.062       .  S
N206        C207   1.345       .  A
N206       Cu212   2.122       .  S
C207        C208   1.392       .  A
C207        H210   1.082       .  S
C208        C209   1.380       .  A
C209        H211   1.082       .  S
Cu212       N215   2.121       .  S
Cu213       N223   2.063       .  S
Cu214       N216   2.069       .  S
Cu214       N222   2.069       .  S
N215        N216   1.320       .  A
N215        C219   1.352       .  A
N216        C217   1.347       .  A
C217        C218   1.385       .  A
C217        H220   1.082       .  S
C218        C219   1.398       .  A
C218        C469   1.490       .  S
C219        H221   1.082       .  S
N222        N223   1.321       .  A
N222        C226   1.342       .  A
N223        C224   1.343       .  A
C224        C225   1.386       .  A
C224        H227   1.081       .  S
C225        C226   1.385       .  A
C225        C477   1.480       .  S
C226        H228   1.081       .  S
C229        C230   1.423       .  A
C229        C234   1.408       .  A
C229        C360   1.484       .  S
C230        C231   1.405       .  A
C231        C232   1.406   1_554  A
C231        H236   1.085       .  S
C232        C233   1.422       .  A
C232        C288   1.483       .  S
C233        C234   1.406   1_556  A
C234        H235   1.084       .  S
O237       Cu245   1.949       .  S
O237        C247   1.266       .  A
O238       Cu245   1.947       .  S
O238        C248   1.266       .  A
O239       Cu245   2.090       .  S
O239        C249   1.290       .  A
O240       Cu245   2.087       .  S
O240        C250   1.289       .  A
O241       Cu246   1.950       .  S
O241        C250   1.267       .  A
O242       Cu246   1.952       .  S
O242        C249   1.266       .  A
O243       Cu246   2.080       .  S
O243        C248   1.289       .  A
O244       Cu246   2.082       .  S
O244        C247   1.289       .  A
Cu245      Cu246   2.363       .  S
C247        C302   1.478       .  S
C248        C278   1.476       .  S
C249        C254   1.482       .  S
C250        C326   1.481       .  S
N251        N252   1.324       .  A
N251        C255   1.352       .  A
N251       Cu259   2.063       .  S
N252        C253   1.345       .  A
N252       Cu258   2.127       .  S
C253        C254   1.394       .  A
C253        H256   1.082       .  S
C254        C255   1.381       .  A
C255        H257   1.082       .  S
Cu258       N261   2.125       .  S
Cu259       N269   2.064       .  S
Cu260       N262   2.062       .  S
Cu260       N268   2.062       .  S
N261        N262   1.321       .  A
N261        C265   1.352       .  A
N262        C263   1.346       .  A
C263        C264   1.384       .  A
C263        H266   1.078       .  S
C264        C265   1.400       .  A
C265        H267   1.082       .  S
N268        N269   1.321       .  A
N268        C272   1.343       .  A
N269        C270   1.342       .  A
C270        C271   1.385       .  A
C270        H273   1.081       .  S
C271        C272   1.383       .  A
C271        C497   1.476       .  S
C272        H274   1.082       .  S
N275        N276   1.323       .  A
N275        C279   1.351       .  A
N275       Cu283   2.055       .  S
N276        C277   1.343       .  A
N276       Cu282   2.113       .  S
C277        C278   1.391       .  A
C277        H280   1.082       .  S
C278        C279   1.380       .  A
C279        H281   1.082       .  S
Cu282       N285   2.112       .  S
Cu283       N293   2.056       .  S
Cu284       N286   2.054       .  S
Cu284       N292   2.055       .  S
N285        N286   1.320       .  A
N285        C289   1.349       .  A
N286        C287   1.343       .  A
C287        C288   1.382       .  A
C287        H290   1.081       .  S
C288        C289   1.397       .  A
C289        H291   1.082       .  S
N292        N293   1.320       .  A
N292        C296   1.341   1_655  A
N293        C294   1.340       .  A
C294        C295   1.383   1_655  A
C294        H297   1.081       .  S
C295        C296   1.383       .  A
C295        C507   1.472       .  S
C296        H298   1.082       .  S
N299        N300   1.322       .  A
N299        C303   1.350       .  A
N299       Cu307   2.053       .  S
N300        C301   1.344       .  A
N300       Cu306   2.119       .  S
C301        C302   1.394       .  A
C301        H304   1.082       .  S
C302        C303   1.381       .  A
C303        H305   1.082       .  S
Cu306       N309   2.119       .  S
Cu307       N317   2.054       .  S
Cu308       N310   2.064       .  S
Cu308       N316   2.065       .  S
N309        N310   1.321       .  A
N309        C313   1.348       .  A
N310        C311   1.348       .  A
C311        C312   1.384       .  A
C311        H314   1.080       .  S
C312        C313   1.398       .  A
C312        C468   1.493       .  S
C313        H315   1.082       .  S
N316        N317   1.321       .  A
N316        C320   1.343       .  A
N317        C318   1.339       .  A
C318        C319   1.384       .  A
C318        H321   1.081       .  S
C319        C320   1.387       .  A
C319        C487   1.480       .  S
C320        H322   1.080       .  S
N323        N324   1.323       .  A
N323        C327   1.354       .  A
N323       Cu331   2.067       .  S
N324        C325   1.342       .  A
N324       Cu330   2.111       .  S
C325        C326   1.391       .  A
C325        H328   1.082       .  S
C326        C327   1.384       .  A
C327        H329   1.082       .  S
Cu330       N333   2.111       .  S
Cu331       N341   2.068       .  S
Cu332       N334   2.070       .  S
Cu332       N340   2.070       .  S
N333        N334   1.320       .  A
N333        C337   1.349       .  A
N334        C335   1.346       .  A
C335        C336   1.386       .  A
C335        H338   1.080       .  S
C336        C337   1.396       .  A
C336        C461   1.489   1_565  S
C337        H339   1.082       .  S
N340        N341   1.322       .  A
N340        C344   1.344   1_655  A
N341        C342   1.341       .  A
C342        C343   1.385   1_655  A
C342        H345   1.081       .  S
C343        C344   1.387       .  A
C343        C474   1.482       .  S
C344        H346   1.080       .  S
N347        N348   1.324       .  A
N347        C351   1.354       .  A
N347       Cu355   2.070   1_455  S
N348        C349   1.342       .  A
N348       Cu354   2.111       .  S
C349        C350   1.390       .  A
C349        H352   1.082       .  S
C350        C351   1.384       .  A
C350        C405   1.481       .  S
C351        H353   1.082       .  S
Cu354       N357   2.110   1_455  S
Cu355       N365   2.070       .  S
Cu356       N358   2.062       .  S
Cu356       N364   2.063       .  S
N357        N358   1.319       .  A
N357        C361   1.349       .  A
N358        C359   1.345       .  A
C359        C360   1.384       .  A
C359        H362   1.081       .  S
C360        C361   1.396       .  A
C361        H363   1.082       .  S
N364        N365   1.322       .  A
N364        C368   1.342       .  A
N365        C366   1.343       .  A
C366        C367   1.386       .  A
C366        H369   1.081       .  S
C367        C368   1.384       .  A
C367        C517   1.478       .  S
C368        H370   1.082       .  S
N371        N372   1.323       .  A
N371        C375   1.351       .  A
N371       Cu379   2.062       .  S
N372        C373   1.345       .  A
N372       Cu378   2.117       .  S
C373        C374   1.393       .  A
C373        H376   1.082       .  S
C374        C375   1.383       .  A
C374        C408   1.480       .  S
C375        H377   1.082       .  S
Cu378       N381   2.118       .  S
Cu379       N389   2.064       .  S
Cu380       N382   2.071       .  S
Cu380       N388   2.071       .  S
N381        N382   1.321       .  A
N381        C385   1.349       .  A
N382        C383   1.348       .  A
C383        C384   1.386       .  A
C383        H386   1.078       .  S
C384        C385   1.398       .  A
C385        H387   1.082       .  S
N388        N389   1.322       .  A
N388        C392   1.345       .  A
N389        C390   1.340       .  A
C390        C391   1.384       .  A
C390        H393   1.082       .  S
C391        C392   1.386       .  A
C391        C527   1.479       .  S
C392        H394   1.081       .  S
O395       Cu403   2.084       .  S
O395        C405   1.289       .  A
O396       Cu403   2.083       .  S
O396        C406   1.289       .  A
O397       Cu403   1.961       .  S
O397        C407   1.268       .  A
O398       Cu403   1.961       .  S
O398        C408   1.268       .  A
O399       Cu404   2.078       .  S
O399        C408   1.288       .  A
O400       Cu404   2.076       .  S
O400        C407   1.288       .  A
O401       Cu404   1.960       .  S
O401        C406   1.268       .  A
O402       Cu404   1.955       .  S
O402        C405   1.268       .  A
Cu403      Cu404   2.362       .  S
C406        C436   1.482       .  S
C407        C412   1.479       .  S
N409        N410   1.322       .  A
N409        C413   1.350       .  A
N409       Cu417   2.058   1_455  S
N410        C411   1.346       .  A
N410       Cu416   2.114       .  S
C411        C412   1.394       .  A
C411        H414   1.082       .  S
C412        C413   1.382       .  A
C413        H415   1.082       .  S
Cu416       N419   2.113   1_455  S
Cu417       N427   2.060       .  S
Cu418       N420   2.071       .  S
Cu418       N426   2.072       .  S
N419        N420   1.322       .  A
N419        C423   1.347       .  A
N420        C421   1.349       .  A
C421        C422   1.386       .  A
C421        H424   1.079       .  S
C422        C423   1.395       .  A
C422        C458   1.494       .  S
C423        H425   1.082   1_655  S
N426        N427   1.322       .  A
N426        C430   1.345       .  A
N427        C428   1.340       .  A
C428        C429   1.383       .  A
C428        H431   1.081       .  S
C429        C430   1.386       .  A
C429        C534   1.477       .  S
C430        H432   1.082       .  S
N433        N434   1.325       .  A
N433        C437   1.353       .  A
N433       Cu441   2.074       .  S
N434        C435   1.344       .  A
N434       Cu440   2.116       .  S
C435        C436   1.391       .  A
C435        H438   1.082       .  S
C436        C437   1.383       .  A
C437        H439   1.082       .  S
Cu440       N443   2.114       .  S
Cu441       N451   2.074       .  S
Cu442       N444   2.065       .  S
Cu442       N450   2.066       .  S
N443        N444   1.320       .  A
N443        C447   1.351       .  A
N444        C445   1.345       .  A
C445        C446   1.385       .  A
C445        H448   1.082       .  S
C446        C447   1.397       .  A
C446        C465   1.487       .  S
C447        H449   1.082       .  S
N450        N451   1.321       .  A
N450        C454   1.342       .  A
N451        C452   1.345       .  A
C452        C453   1.388       .  A
C452        H455   1.082       .  S
C453        C454   1.386       .  A
C453        C544   1.484       .  S
C454        H456   1.080       .  S
C457        C458   1.421       .  A
C457        C462   1.407       .  A
C458        C459   1.407       .  A
C459        C460   1.406       .  A
C459        H464   1.084       .  S
C460        C461   1.421       .  A
C461        C462   1.406       .  A
C462        H463   1.085   1_545  S
C465        C466   1.424       .  A
C465        C470   1.408       .  A
C466        C467   1.408       .  A
C467        C468   1.407       .  A
C467        H472   1.083       .  S
C468        C469   1.423       .  A
C469        C470   1.406       .  A
C470        H471   1.085       .  S
C473        C474   1.406       .  A
C473        C478   1.396       .  A
C473        H480   1.082   1_455  S
C474        C475   1.408       .  A
C475        C476   1.396       .  A
C475        F482   1.356       .  S
C476        C477   1.405       .  A
C476        H481   1.082       .  S
C477        C478   1.406       .  A
C478        F479   1.357       .  S
C483        C484   1.404       .  A
C483        C488   1.396       .  A
C483        H490   1.082       .  S
C484        C485   1.406       .  A
C485        C486   1.392       .  A
C485        F492   1.356       .  S
C486        C487   1.405       .  A
C486        H491   1.082       .  S
C487        C488   1.409       .  A
C488        F489   1.356       .  S
C493        C494   1.405       .  A
C493        C498   1.394       .  A
C493        H500   1.082       .  S
C494        C495   1.407       .  A
C495        C496   1.397       .  A
C495        F502   1.357       .  S
C496        C497   1.405       .  A
C496        H501   1.083       .  S
C497        C498   1.405       .  A
C498        F499   1.357       .  S
C503        C504   1.404       .  A
C503        C508   1.392       .  A
C503        H510   1.083       .  S
C504        C505   1.406       .  A
C505        C506   1.395       .  A
C505        F512   1.357       .  S
C506        C507   1.405       .  A
C506        H511   1.083       .  S
C507        C508   1.405       .  A
C508        F509   1.357   1_455  S
C513        C514   1.404       .  A
C513        C518   1.395       .  A
C513        H520   1.083       .  S
C514        C515   1.407       .  A
C515        C516   1.395       .  A
C515        F522   1.357       .  S
C516        C517   1.405       .  A
C516        H521   1.082       .  S
C517        C518   1.406       .  A
C518        F519   1.357       .  S
C523        C524   1.404       .  A
C523        C528   1.398       .  A
C523        H530   1.083       .  S
C524        C525   1.407       .  A
C525        C526   1.393       .  A
C525        F532   1.357       .  S
C526        C527   1.404       .  A
C526        H531   1.082       .  S
C527        C528   1.408       .  A
C528        F529   1.356       .  S
C533        C534   1.404       .  A
C533        C538   1.398       .  A
C533        H540   1.083       .  S
C534        C535   1.407       .  A
C535        C536   1.394       .  A
C535        F542   1.357       .  S
C536        C537   1.404       .  A
C536        H541   1.083       .  S
C537        C538   1.409       .  A
C538        F539   1.356       .  S
C543        C544   1.405       .  A
C543        C548   1.398       .  A
C543        H550   1.083       .  S
C544        C545   1.409       .  A
C545        C546   1.396       .  A
C545        F552   1.356       .  S
C546        C547   1.404       .  A
C546        H551   1.082       .  S
C547        C548   1.409       .  A
C548        F549   1.357       .  S
