geometry optimzed in LAMMPS
_audit_creation_date              2020-11-30 
_audit_creation_method            'lammps2cif' 
_symmetry_space_group_name_H-M    'P1' 
_symmetry_Int_Tables_number       1 
_symmetry_cell_setting            triclinic 
loop_ 
_symmetry_equiv_pos_as_xyz 
  x,y,z 
_cell_length_a                    36.946361840557074 
_cell_length_b                    36.87371598170548 
_cell_length_c                    48.217330669183404 
_cell_angle_alpha                 87.52351444390915 
_cell_angle_beta                  90.54302799767645 
_cell_angle_gamma                 120.87207332310443 
loop_ 
_atom_site_label 
_atom_site_type_symbol 
_atom_site_fract_x 
_atom_site_fract_y 
_atom_site_fract_z 
_atom_site_charge 
C1          C  0.32862907  0.16338822  0.00576580    -0.01630
C2          C  0.33929555  0.17312869  0.12957689    -0.01630
C3          C  0.16107449  0.34682656  0.37868786    -0.01630
C4          C  0.16228939  0.33842515  0.25434765    -0.01630
N5          N  0.46644927  0.06385840  0.47475174    -0.05260
N6          N  0.45762176  0.09436954  0.47507368    -0.57380
N7          N  0.47639498  0.48957257  0.01096881    -0.04940
N8          N  0.46868100  0.47398933  0.03689800    -0.59510
N9          N  0.01157696  0.02667820  0.00954959    -0.04540
N10         N  0.02842318  0.03686498  0.03440598    -0.57350
N11         N  0.43151843  0.02665758  0.47627675    -0.04210
N12         N  0.39830770  0.03104720  0.47787671    -0.59860
C13         C  0.41492972  0.07343807  0.47698963     0.96920
C14         C  0.50167269  0.50353002  0.05123514     0.96700
N15         N  0.44543206  0.39977517  0.44903909    -0.05440
N16         N  0.43733177  0.36047344  0.45036065    -0.57960
N17         N  0.39109959  0.44774037  0.43923835    -0.03560
N18         N  0.35191127  0.43941949  0.43842157    -0.59210
N19         N  0.40156896  0.43829148  0.41576055    -0.05470
N20         N  0.36943610  0.42296863  0.39862561    -0.58220
N21         N  0.43467726  0.40893078  0.47253219    -0.03210
N22         N  0.41855841  0.37565888  0.49013426    -0.59300
Mn23       Mn  0.43279051  0.46763988  0.47533559     1.18440
C24         C  0.42142549  0.34605644  0.47623558     0.99000
C25         C  0.33874490  0.42418291  0.41297486     0.99660
N26         N  0.09006389  0.07219596  0.46719789    -0.05490
N27         N  0.12240685  0.08666153  0.48422276    -0.61800
N28         N  0.05595398  0.10114471  0.41081247    -0.04300
N29         N  0.07183576  0.13447664  0.39330253    -0.62480
N30         N  0.04452724  0.10982464  0.43422108    -0.05000
N31         N  0.05157765  0.14868406  0.43290446    -0.62070
N32         N  0.10020094  0.06301663  0.44351334    -0.03900
N33         N  0.13930118  0.07105966  0.44383167    -0.62760
Mn34       Mn  0.02867211  0.06888203  0.47193101     1.10660
C35         C  0.15282038  0.08556963  0.46931826     1.00220
C36         C  0.06784914  0.16342831  0.40718208     1.00300
N37         N  0.48053598  0.48382078  0.37322937    -0.05010
N38         N  0.46550758  0.47360230  0.34788351    -0.60380
N39         N  0.05903810  0.48364059  0.40770610    -0.04330
N40         N  0.09215113  0.47915245  0.40665300    -0.57110
N41         N  0.02410144  0.44645921  0.40935844    -0.05640
N42         N  0.03269085  0.41580930  0.40970255    -0.59950
N43         N  0.01553318  0.02109513  0.37230354    -0.04620
N44         N  0.02489230  0.03671431  0.34642711    -0.57130
Mn45       Mn  0.46236833  0.44137665  0.41131717     1.20190
Mn46       Mn  0.05818979  0.04277209  0.40802825     1.10090
Cl47       Cl  0.49544377  0.00517315  0.44164824    -0.85100
C48         C  0.49319052  0.00712432  0.33139899     0.97230
C49         C  0.07527458  0.43676712  0.40817915     0.97030
N50         N  0.40433667  0.44184598  0.21975231    -0.05260
N51         N  0.37023443  0.42233788  0.23577976    -0.57380
N52         N  0.43539184  0.41212783  0.16513157    -0.04940
N53         N  0.42036715  0.38023745  0.14835873    -0.59510
N54         N  0.44467421  0.40105226  0.18926831    -0.04540
N55         N  0.43611000  0.36166945  0.18944906    -0.57350
N56         N  0.39547595  0.45368510  0.19577031    -0.04210
N57         N  0.35553778  0.44282515  0.19512389    -0.59860
C58         C  0.34010401  0.42350440  0.22019904     0.96920
C59         C  0.42125765  0.34906889  0.16381157     0.96700
N60         N  0.01623031  0.02833571  0.12200428    -0.05440
N61         N  0.03174969  0.03712063  0.09632959    -0.57960
N62         N  0.44128699  0.03522992  0.15662014    -0.03560
N63         N  0.41055123  0.04368418  0.15718963    -0.59210
N64         N  0.47816869  0.07056019  0.15557108    -0.05470
N65         N  0.47335097  0.10363177  0.15522044    -0.58220
N66         N  0.47962302  0.49266589  0.12305603    -0.03210
N67         N  0.46972459  0.47645571  0.09828601    -0.59300
Mn68       Mn  0.43733035  0.47312015  0.15958685     1.18440
C69         C  0.50265929  0.50415592  0.08184205     0.99000
C70         C  0.43107680  0.08655137  0.15630002     0.99660
N71         N  0.02310763  0.44210066  0.22794322    -0.05490
N72         N  0.02922652  0.40981021  0.22984348    -0.61800
N73         N  0.01983851  0.01918713  0.25992285    -0.04300
N74         N  0.02831602  0.03499743  0.28488662    -0.62480
N75         N  0.48328857  0.48338619  0.26043472    -0.05000
N76         N  0.46639976  0.47420556  0.28572131    -0.62070
N77         N  0.05939343  0.47794414  0.22732843    -0.03900
N78         N  0.09089055  0.47093685  0.22881093    -0.62760
Mn79       Mn  0.46340419  0.44149954  0.22492037     1.10660
C80         C  0.07175651  0.42833685  0.23034433     1.00220
C81         C  0.49450967  0.00691380  0.30072109     1.00300
N82         N  0.05729992  0.11116655  0.19348871    -0.05010
N83         N  0.06706649  0.15094594  0.19363309    -0.60380
N84         N  0.10539127  0.05738668  0.18651199    -0.04330
N85         N  0.14448403  0.06514841  0.18600336    -0.57110
N86         N  0.09606991  0.06855905  0.16240077    -0.05640
N87         N  0.12886458  0.08450443  0.14519442    -0.59950
N88         N  0.06596842  0.09945511  0.21757328    -0.04620
N89         N  0.08193969  0.13105292  0.23448893    -0.57130
Mn90       Mn  0.03749654  0.07033989  0.15769581     1.20190
Mn91       Mn  0.06327198  0.03895409  0.22336275     1.10090
Cl92       Cl  0.50039648  0.00598255  0.19137633    -0.85100
C93         C  0.08222094  0.16296281  0.21937522     0.97230
C94         C  0.15846213  0.08121029  0.15998168     0.97030
C95         C  0.12987676  0.28168923  0.21794709     0.24460
C96         C  0.14045350  0.29146432  0.24609853    -0.23650
C97         C  0.13389909  0.25762115  0.26479242     0.19360
C98         C  0.11458336  0.21617632  0.25613432     0.24400
C99         C  0.10166374  0.20680895  0.22858886    -0.23600
C100        C  0.10970165  0.24009782  0.20958227     0.19300
F101        F  0.09861100  0.23277028  0.18257062    -0.13550
F102        F  0.13719536  0.31231473  0.19839202    -0.15920
F103        F  0.10913176  0.18522379  0.27494747    -0.15920
F104        F  0.14746930  0.26382410  0.29134224    -0.13560
C105        C  0.09495216  0.33946049  0.23752084     0.24460
C106        C  0.13892671  0.36140892  0.24337757    -0.23650
C107        C  0.15948892  0.40615610  0.24411478     0.19360
C108        C  0.13815752  0.42758490  0.23852145     0.24400
C109        C  0.09475758  0.40537481  0.23345994    -0.23600
C110        C  0.07354134  0.36120054  0.23267970     0.19300
F111        F  0.03142949  0.33847440  0.22804875    -0.13550
F112        F  0.07101952  0.29666030  0.23816968    -0.15920
F113        F  0.16025035  0.47044044  0.23919686    -0.15920
F114        F  0.20075442  0.43006726  0.25052593    -0.13560
C115        C  0.27905129  0.36995660  0.24953141     0.24460
C116        C  0.29464997  0.40006932  0.22734745    -0.23650
C117        C  0.26596258  0.40550702  0.21093803     0.19360
C118        C  0.22313436  0.38417434  0.21809812     0.24400
C119        C  0.20790302  0.35763108  0.24253636    -0.23600
C120        C  0.23621261  0.34780765  0.25627105     0.19300
F121        F  0.22346299  0.31954328  0.27818694    -0.13550
F122        F  0.30519413  0.36189763  0.26507086    -0.15920
F123        F  0.19719345  0.39004954  0.20085599    -0.15920
F124        F  0.27923886  0.43195900  0.18797563    -0.13560
C125        C  0.09041309  0.27379394  0.39030322     0.24460
C126        C  0.13561691  0.29862589  0.38997679    -0.23650
C127        C  0.15570543  0.27633882  0.40024788     0.19360
C128        C  0.13392219  0.23226591  0.40301032     0.24400
C129        C  0.09046549  0.20872486  0.39956773    -0.23600
C130        C  0.06861710  0.22981085  0.39476257     0.19300
F131        F  0.02578009  0.20782987  0.39512011    -0.13550
F132        F  0.06604811  0.29149594  0.38866127    -0.15920
F133        F  0.15504089  0.21264378  0.41150575    -0.15920
F134        F  0.19484012  0.29573993  0.41103262    -0.13560
C135        C  0.09465156  0.38204507  0.42008335     0.24460
C136        C  0.09972892  0.41637493  0.40334580    -0.23650
C137        C  0.12859396  0.43159375  0.38129705     0.19360
C138        C  0.14920657  0.41061534  0.37422019     0.24400
C139        C  0.14106910  0.37263474  0.38873736    -0.23600
C140        C  0.11683205  0.36184595  0.41376934     0.19300
F141        F  0.11498492  0.33229359  0.43244904    -0.13550
F142        F  0.06914814  0.36882066  0.44295043    -0.15920
F143        F  0.17756353  0.42892399  0.35318444    -0.15920
F144        F  0.13591890  0.46634484  0.36568180    -0.13560
C145        C  0.23618356  0.35736616  0.37579808     0.24460
C146        C  0.20814777  0.36798833  0.38841438    -0.23650
C147        C  0.22516631  0.39749568  0.40982062     0.19360
C148        C  0.26749374  0.41602787  0.41720675     0.24400
C149        C  0.29471469  0.40625499  0.40372261    -0.23600
C150        C  0.27865687  0.37693330  0.38282710     0.19300
F151        F  0.30359444  0.36567737  0.36976483    -0.13550
F152        F  0.22199522  0.32681617  0.35688615    -0.15920
F153        F  0.28172680  0.44368787  0.43795323    -0.15920
F154        F  0.20141080  0.40793748  0.42492615    -0.13560
C155        C  0.19654473  0.37717467  0.32915300     0.24460
C156        C  0.16034493  0.34837181  0.34571485    -0.23650
C157        C  0.12318689  0.32393667  0.33034440     0.19360
C158        C  0.12436372  0.32072831  0.30174468     0.24400
C159        C  0.16229484  0.34353246  0.28626428    -0.23600
C160        C  0.19739918  0.37490868  0.30047935     0.19300
F161        F  0.23285084  0.40536178  0.28706469    -0.13550
F162        F  0.23106858  0.41055126  0.34001779    -0.15920
F163        F  0.08759890  0.29385582  0.28939204    -0.15920
F164        F  0.08433640  0.30480818  0.34165249    -0.13560
C165        C  0.22809309  0.14718138  0.15635141     0.24460
C166        C  0.20345944  0.10396250  0.15206029    -0.23650
C167        C  0.22200086  0.08330839  0.14031091     0.19360
C168        C  0.26511221  0.10559383  0.13335775     0.24400
C169        C  0.29161311  0.14916813  0.13902868    -0.23600
C170        C  0.27109254  0.16977230  0.14956069     0.19300
F171        F  0.29064999  0.21229856  0.15125692    -0.13550
F172        F  0.21005707  0.16804881  0.16661761    -0.15920
F173        F  0.28106838  0.08423505  0.12106953    -0.15920
F174        F  0.19822002  0.04154790  0.13524285    -0.13560
C175        C  0.40377025  0.29712935  0.12706359     0.24460
C176        C  0.40358947  0.30522623  0.15509806    -0.23650
C177        C  0.38640081  0.27108485  0.17476454     0.19360
C178        C  0.36724310  0.22945881  0.16631078     0.24400
C179        C  0.36378837  0.22043022  0.13779280    -0.23600
C180        C  0.38565888  0.25569689  0.11852431     0.19300
F181        F  0.39275350  0.25135313  0.09167833    -0.13550
F182        F  0.42310648  0.32961712  0.10781684    -0.15920
F183        F  0.34981000  0.19757848  0.18608991    -0.15920
F184        F  0.38642756  0.27772181  0.20224630    -0.13560
C185        C  0.43036957  0.15175238  0.14086936     0.24600
C186        C  0.41021264  0.11184746  0.15472130    -0.23650
C187        C  0.36989495  0.09634929  0.16630076     0.19360
C188        C  0.34847308  0.11833315  0.16167375     0.24400
C189        C  0.36530457  0.15426511  0.14294135    -0.23600
C190        C  0.40851288  0.17278370  0.13517561     0.19300
F191        F  0.42837998  0.20887417  0.11896802    -0.13550
F192        F  0.47020351  0.16901112  0.13055062    -0.15920
F193        F  0.31184215  0.10421020  0.17589834    -0.15920
F194        F  0.35122137  0.05995339  0.18231086    -0.13560
C195        C  0.20507462  0.09957890  0.00664518     0.24460
C196        C  0.19659105  0.10174753  0.47852579    -0.23650
C197        C  0.23023742  0.11897556  0.45919629     0.19360
C198        C  0.27190449  0.13689750  0.46812015     0.24400
C199        C  0.28139357  0.13903873  0.49675981    -0.23600
C200        C  0.24647691  0.11624987  0.01561169     0.19300
F201        F  0.25113768  0.10719518  0.04249554    -0.13550
F202        F  0.17297507  0.07968140  0.02554268    -0.15920
F203        F  0.30336473  0.15473296  0.44869678    -0.15920
F204        F  0.22311602  0.12029137  0.43159779    -0.13560
C205        C  0.39599623  0.23758592  0.00331124     0.24460
C206        C  0.35265275  0.21160647  0.49642524    -0.23650
C207        C  0.33250707  0.23291636  0.48482722     0.19360
C208        C  0.35527660  0.27645121  0.47853047     0.24400
C209        C  0.39817225  0.30071429  0.48434868    -0.23600
C210        C  0.41841256  0.28120595  0.49687960     0.19300
F211        F  0.45995988  0.30447713  0.00306124    -0.13550
F212        F  0.41700588  0.22056529  0.01625346    -0.15920
F213        F  0.33495485  0.29529168  0.46706464    -0.15920
F214        F  0.29024884  0.21348009  0.48151301    -0.13560
C215        C  0.40443456  0.13526389  0.46878597     0.24460
C216        C  0.38977039  0.09417231  0.47990705    -0.23650
C217        C  0.35110329  0.07330340  0.49444998     0.19360
C218        C  0.33032188  0.09480098  0.50071777     0.24400
C219        C  0.34798639  0.13840857  0.49305996    -0.23600
C220        C  0.38286376  0.15642633  0.47414909     0.19300
F221        F  0.39611264  0.19388250  0.46011300    -0.13550
F222        F  0.43955295  0.15493965  0.45231797    -0.15920
F223        F  0.29511689  0.07391523  0.51698988    -0.15920
F224        F  0.33471823  0.03285016  0.50451475    -0.13560
C225        C  0.31650124  0.18637970  0.08153180     0.24460
C226        C  0.33683159  0.16899146  0.09742399    -0.23650
C227        C  0.35223643  0.14696785  0.08277058     0.19360
C228        C  0.35370990  0.14856994  0.05394204     0.24400
C229        C  0.33228097  0.16474320  0.03802542    -0.23600
C230        C  0.31470193  0.18474241  0.05270843     0.19300
F231        F  0.29437362  0.20198590  0.03913947    -0.13550
F232        F  0.29933244  0.20658558  0.09386360    -0.15920
F233        F  0.37826138  0.13564193  0.04242982    -0.15920
F234        F  0.36431192  0.12151140  0.09556355    -0.13560
C235        C  0.32862907  0.16338823  0.50576580    -0.01630
C236        C  0.33929555  0.17312870  0.62957689    -0.01630
C237        C  0.16107448  0.34682655  0.87868787    -0.01630
C238        C  0.16228938  0.33842515  0.75434765    -0.01630
N239        N  0.46644927  0.06385840  0.97475173    -0.05260
N240        N  0.45762176  0.09436954  0.97507367    -0.57380
N241        N  0.47639499  0.48957258  0.51096880    -0.04940
N242        N  0.46868100  0.47398934  0.53689800    -0.59510
N243        N  0.01157696  0.02667821  0.50954959    -0.04540
N244        N  0.02842318  0.03686499  0.53440597    -0.57350
N245        N  0.43151843  0.02665757  0.97627675    -0.04210
N246        N  0.39830770  0.03104719  0.97787670    -0.59860
C247        C  0.41492971  0.07343806  0.97698962     0.96920
C248        C  0.50167269  0.50353003  0.55123514     0.96700
N249        N  0.44543206  0.39977516  0.94903909    -0.05440
N250        N  0.43733177  0.36047344  0.95036065    -0.57960
N251        N  0.39109959  0.44774036  0.93923835    -0.03560
N252        N  0.35191126  0.43941948  0.93842156    -0.59210
N253        N  0.40156896  0.43829147  0.91576055    -0.05470
N254        N  0.36943610  0.42296863  0.89862561    -0.58220
N255        N  0.43467726  0.40893077  0.97253219    -0.03210
N256        N  0.41855840  0.37565887  0.99013426    -0.59300
Mn257      Mn  0.43279051  0.46763987  0.97533559     1.18440
C258        C  0.42142549  0.34605643  0.97623558     0.99000
C259        C  0.33874490  0.42418290  0.91297486     0.99660
N260        N  0.09006389  0.07219595  0.96719789    -0.05490
N261        N  0.12240684  0.08666152  0.98422276    -0.61800
N262        N  0.05595397  0.10114471  0.91081248    -0.04300
N263        N  0.07183575  0.13447664  0.89330254    -0.62480
N264        N  0.04452723  0.10982463  0.93422109    -0.05000
N265        N  0.05157764  0.14868405  0.93290447    -0.62070
N266        N  0.10020093  0.06301663  0.94351334    -0.03900
N267        N  0.13930118  0.07105965  0.94383167    -0.62760
Mn268      Mn  0.02867210  0.06888202  0.97193101     1.10660
C269        C  0.15282037  0.08556962  0.96931826     1.00220
C270        C  0.06784913  0.16342830  0.90718209     1.00300
N271        N  0.48053598  0.48382078  0.87322937    -0.05010
N272        N  0.46550758  0.47360230  0.84788351    -0.60380
N273        N  0.05903810  0.48364059  0.90770610    -0.04330
N274        N  0.09215113  0.47915245  0.90665301    -0.57110
N275        N  0.02410144  0.44645921  0.90935844    -0.05640
N276        N  0.03269085  0.41580929  0.90970256    -0.59950
N277        N  0.01553317  0.02109513  0.87230354    -0.04620
N278        N  0.02489230  0.03671431  0.84642711    -0.57130
Mn279      Mn  0.46236833  0.44137664  0.91131717     1.20190
Mn280      Mn  0.05818979  0.04277208  0.90802826     1.10090
Cl281      Cl  0.49544377  0.00517315  0.94164823    -0.85100
C282        C  0.49319052  0.00712432  0.83139899     0.97230
C283        C  0.07527458  0.43676712  0.90817916     0.97030
N284        N  0.40433667  0.44184599  0.71975231    -0.05260
N285        N  0.37023444  0.42233789  0.73577976    -0.57380
N286        N  0.43539184  0.41212783  0.66513157    -0.04940
N287        N  0.42036715  0.38023746  0.64835872    -0.59510
N288        N  0.44467421  0.40105226  0.68926831    -0.04540
N289        N  0.43611000  0.36166945  0.68944905    -0.57350
N290        N  0.39547595  0.45368510  0.69577031    -0.04210
N291        N  0.35553778  0.44282515  0.69512389    -0.59860
C292        C  0.34010402  0.42350441  0.72019904     0.96920
C293        C  0.42125765  0.34906890  0.66381156     0.96700
N294        N  0.01623031  0.02833571  0.62200428    -0.05440
N295        N  0.03174969  0.03712064  0.59632959    -0.57960
N296        N  0.44128698  0.03522992  0.65662014    -0.03560
N297        N  0.41055122  0.04368418  0.65718963    -0.59210
N298        N  0.47816869  0.07056020  0.65557108    -0.05470
N299        N  0.47335097  0.10363178  0.65522044    -0.58220
N300        N  0.47962302  0.49266590  0.62305603    -0.03210
N301        N  0.46972459  0.47645572  0.59828600    -0.59300
Mn302      Mn  0.43733034  0.47312016  0.65958685     1.18440
C303        C  0.50265930  0.50415593  0.58184205     0.99000
C304        C  0.43107680  0.08655138  0.65630003     0.99660
N305        N  0.02310763  0.44210066  0.72794323    -0.05490
N306        N  0.02922652  0.40981021  0.72984348    -0.61800
N307        N  0.01983851  0.01918713  0.75992285    -0.04300
N308        N  0.02831602  0.03499743  0.78488662    -0.62480
N309        N  0.48328857  0.48338619  0.76043472    -0.05000
N310        N  0.46639976  0.47420556  0.78572131    -0.62070
N311        N  0.05939342  0.47794414  0.72732844    -0.03900
N312        N  0.09089054  0.47093686  0.72881093    -0.62760
Mn313      Mn  0.46340419  0.44149954  0.72492037     1.10660
C314        C  0.07175651  0.42833685  0.73034433     1.00220
C315        C  0.49450966  0.00691380  0.80072109     1.00300
N316        N  0.05729992  0.11116656  0.69348871    -0.05010
N317        N  0.06706649  0.15094594  0.69363308    -0.60380
N318        N  0.10539127  0.05738668  0.68651198    -0.04330
N319        N  0.14448402  0.06514842  0.68600336    -0.57110
N320        N  0.09606991  0.06855906  0.66240076    -0.05640
N321        N  0.12886457  0.08450443  0.64519442    -0.59950
N322        N  0.06596842  0.09945511  0.71757327    -0.04620
N323        N  0.08193969  0.13105293  0.73448893    -0.57130
Mn324      Mn  0.03749654  0.07033990  0.65769581     1.20190
Mn325      Mn  0.06327198  0.03895410  0.72336275     1.10090
Cl326      Cl  0.50039647  0.00598256  0.69137633    -0.85100
C327        C  0.08222095  0.16296281  0.71937521     0.97230
C328        C  0.15846213  0.08121030  0.65998168     0.97030
C329        C  0.12987672  0.28168923  0.71794709     0.24460
C330        C  0.14045350  0.29146433  0.74609852    -0.23650
C331        C  0.13389914  0.25762117  0.76479241     0.19360
C332        C  0.11458341  0.21617633  0.75613430     0.24400
C333        C  0.10166375  0.20680896  0.72858886    -0.23600
C334        C  0.10970162  0.24009782  0.70958227     0.19300
F335        F  0.09861092  0.23277028  0.68257063    -0.13550
F336        F  0.13719527  0.31231472  0.69839202    -0.15920
F337        F  0.10913186  0.18522381  0.77494745    -0.15920
F338        F  0.14746937  0.26382412  0.79134223    -0.13560
C339        C  0.09495215  0.33946049  0.73752086     0.24460
C340        C  0.13892670  0.36140892  0.74337757    -0.23650
C341        C  0.15948892  0.40615611  0.74411474     0.19360
C342        C  0.13815752  0.42758491  0.73852142     0.24400
C343        C  0.09475757  0.40537481  0.73345993    -0.23600
C344        C  0.07354133  0.36120054  0.73267973     0.19300
F345        F  0.03142947  0.33847440  0.72804881    -0.13550
F346        F  0.07101951  0.29666030  0.73816972    -0.15920
F347        F  0.16025036  0.47044045  0.73919680    -0.15920
F348        F  0.20075444  0.43006728  0.75052587    -0.13560
C349        C  0.27905131  0.36995665  0.74953144     0.24460
C350        C  0.29464997  0.40006933  0.72734745    -0.23650
C351        C  0.26596257  0.40550699  0.71093801     0.19360
C352        C  0.22313435  0.38417431  0.71809811     0.24400
C353        C  0.20790302  0.35763109  0.74253636    -0.23600
C354        C  0.23621263  0.34780770  0.75627108     0.19300
F355        F  0.22346303  0.31954337  0.77818699    -0.13550
F356        F  0.30519416  0.36189773  0.76507091    -0.15920
F357        F  0.19719343  0.39004947  0.70085597    -0.15920
F358        F  0.27923884  0.43195892  0.68797559    -0.13560
C359        C  0.09041309  0.27379394  0.89030325     0.24460
C360        C  0.13561691  0.29862588  0.88997679    -0.23650
C361        C  0.15570544  0.27633881  0.90024786     0.19360
C362        C  0.13392219  0.23226590  0.90301030     0.24400
C363        C  0.09046548  0.20872486  0.89956774    -0.23600
C364        C  0.06861710  0.22981086  0.89476260     0.19300
F365        F  0.02578008  0.20782988  0.89512016    -0.13550
F366        F  0.06604811  0.29149594  0.88866128    -0.15920
F367        F  0.15504089  0.21264376  0.91150571    -0.15920
F368        F  0.19484014  0.29573991  0.91103257    -0.13560
C369        C  0.09465156  0.38204507  0.92008336     0.24460
C370        C  0.09972892  0.41637493  0.90334581    -0.23650
C371        C  0.12859396  0.43159375  0.88129706     0.19360
C372        C  0.14920657  0.41061534  0.87422020     0.24400
C373        C  0.14106910  0.37263474  0.88873736    -0.23600
C374        C  0.11683205  0.36184595  0.91376934     0.19300
F375        F  0.11498492  0.33229359  0.93244905    -0.13550
F376        F  0.06914813  0.36882065  0.94295044    -0.15920
F377        F  0.17756353  0.42892400  0.85318445    -0.15920
F378        F  0.13591891  0.46634484  0.86568181    -0.13560
C379        C  0.23618356  0.35736618  0.87579806     0.24460
C380        C  0.20814777  0.36798833  0.88841438    -0.23650
C381        C  0.22516630  0.39749565  0.90982064     0.19360
C382        C  0.26749373  0.41602784  0.91720677     0.24400
C383        C  0.29471468  0.40625499  0.90372261    -0.23600
C384        C  0.27865687  0.37693333  0.88282709     0.19300
F385        F  0.30359445  0.36567742  0.86976479    -0.13550
F386        F  0.22199524  0.32681620  0.85688612    -0.15920
F387        F  0.28172678  0.44368781  0.93795325    -0.15920
F388        F  0.20141078  0.40793741  0.92492618    -0.13560
C389        C  0.19654470  0.37717468  0.82915300     0.24460
C390        C  0.16034491  0.34837180  0.84571485    -0.23650
C391        C  0.12318688  0.32393662  0.83034440     0.19360
C392        C  0.12436371  0.32072827  0.80174468     0.24400
C393        C  0.16229482  0.34353246  0.78626428    -0.23600
C394        C  0.19739915  0.37490871  0.80047935     0.19300
F395        F  0.23285079  0.40536184  0.78706469    -0.13550
F396        F  0.23106855  0.41055128  0.84001779    -0.15920
F397        F  0.08759890  0.29385574  0.78939205    -0.15920
F398        F  0.08433639  0.30480806  0.84165250    -0.13560
C399        C  0.22809308  0.14718138  0.65635140     0.24460
C400        C  0.20345944  0.10396251  0.65206028    -0.23650
C401        C  0.22200085  0.08330840  0.64031091     0.19360
C402        C  0.26511221  0.10559384  0.63335775     0.24400
C403        C  0.29161311  0.14916813  0.63902868    -0.23600
C404        C  0.27109254  0.16977230  0.64956069     0.19300
F405        F  0.29064999  0.21229857  0.65125692    -0.13550
F406        F  0.21005707  0.16804881  0.66661761    -0.15920
F407        F  0.28106838  0.08423505  0.62106953    -0.15920
F408        F  0.19822002  0.04154791  0.63524285    -0.13560
C409        C  0.40377025  0.29712935  0.62706359     0.24460
C410        C  0.40358947  0.30522623  0.65509806    -0.23650
C411        C  0.38640081  0.27108485  0.67476454     0.19360
C412        C  0.36724310  0.22945881  0.66631078     0.24400
C413        C  0.36378837  0.22043022  0.63779280    -0.23600
C414        C  0.38565888  0.25569689  0.61852430     0.19300
F415        F  0.39275350  0.25135313  0.59167833    -0.13550
F416        F  0.42310648  0.32961713  0.60781683    -0.15920
F417        F  0.34981000  0.19757848  0.68608991    -0.15920
F418        F  0.38642756  0.27772182  0.70224629    -0.13560
C419        C  0.43036956  0.15175239  0.64086936     0.24600
C420        C  0.41021263  0.11184747  0.65472130    -0.23650
C421        C  0.36989495  0.09634930  0.66630076     0.19360
C422        C  0.34847307  0.11833315  0.66167375     0.24400
C423        C  0.36530457  0.15426511  0.64294135    -0.23600
C424        C  0.40851288  0.17278370  0.63517561     0.19300
F425        F  0.42837998  0.20887418  0.61896802    -0.13550
F426        F  0.47020350  0.16901112  0.63055062    -0.15920
F427        F  0.31184215  0.10421021  0.67589834    -0.15920
F428        F  0.35122137  0.05995340  0.68231086    -0.13560
C429        C  0.20507462  0.09957891  0.50664518     0.24460
C430        C  0.19659105  0.10174753  0.97852580    -0.23650
C431        C  0.23023742  0.11897555  0.95919629     0.19360
C432        C  0.27190448  0.13689749  0.96812016     0.24400
C433        C  0.28139357  0.13903872  0.99675982    -0.23600
C434        C  0.24647692  0.11624988  0.51561169     0.19300
F435        F  0.25113768  0.10719518  0.54249553    -0.13550
F436        F  0.17297507  0.07968141  0.52554268    -0.15920
F437        F  0.30336472  0.15473296  0.94869678    -0.15920
F438        F  0.22311601  0.12029137  0.93159779    -0.13560
C439        C  0.39599624  0.23758592  0.50331124     0.24460
C440        C  0.35265275  0.21160647  0.99642524    -0.23650
C441        C  0.33250706  0.23291635  0.98482723     0.19360
C442        C  0.35527660  0.27645121  0.97853047     0.24400
C443        C  0.39817225  0.30071429  0.98434868    -0.23600
C444        C  0.41841256  0.28120595  0.99687960     0.19300
F445        F  0.45995989  0.30447714  0.50306124    -0.13550
F446        F  0.41700588  0.22056530  0.51625346    -0.15920
F447        F  0.33495485  0.29529167  0.96706464    -0.15920
F448        F  0.29024884  0.21348008  0.98151302    -0.13560
C449        C  0.40443456  0.13526388  0.96878597     0.24460
C450        C  0.38977038  0.09417230  0.97990705    -0.23650
C451        C  0.35110328  0.07330339  0.99444998     0.19360
C452        C  0.33032187  0.09480097  0.00071777     0.24400
C453        C  0.34798639  0.13840856  0.99305996    -0.23600
C454        C  0.38286375  0.15642633  0.97414909     0.19300
F455        F  0.39611263  0.19388249  0.96011300    -0.13550
F456        F  0.43955294  0.15493965  0.95231796    -0.15920
F457        F  0.29511688  0.07391523  0.01698988    -0.15920
F458        F  0.33471823  0.03285016  0.00451475    -0.13560
C459        C  0.31650124  0.18637970  0.58153180     0.24460
C460        C  0.33683159  0.16899146  0.59742398    -0.23650
C461        C  0.35223643  0.14696785  0.58277058     0.19360
C462        C  0.35370990  0.14856994  0.55394204     0.24400
C463        C  0.33228097  0.16474320  0.53802542    -0.23600
C464        C  0.31470193  0.18474242  0.55270843     0.19300
F465        F  0.29437362  0.20198591  0.53913947    -0.13550
F466        F  0.29933244  0.20658559  0.59386359    -0.15920
F467        F  0.37826138  0.13564193  0.54242982    -0.15920
F468        F  0.36431192  0.12151140  0.59556355    -0.13560
C469        C  0.32862907  0.66338822  0.00576580    -0.01630
C470        C  0.33929555  0.67312869  0.12957689    -0.01630
C471        C  0.16107448  0.84682655  0.37868786    -0.01630
C472        C  0.16228939  0.83842515  0.25434764    -0.01630
N473        N  0.46644927  0.56385841  0.47475173    -0.05260
N474        N  0.45762176  0.59436955  0.47507367    -0.57380
N475        N  0.47639498  0.98957256  0.01096880    -0.04940
N476        N  0.46868100  0.97398933  0.03689800    -0.59510
N477        N  0.01157695  0.52667819  0.00954959    -0.04540
N478        N  0.02842317  0.53686498  0.03440598    -0.57350
N479        N  0.43151843  0.52665759  0.47627675    -0.04210
N480        N  0.39830770  0.53104720  0.47787670    -0.59860
C481        C  0.41492972  0.57343807  0.47698962     0.96920
C482        C  0.50167269  0.00353001  0.05123514     0.96700
N483        N  0.44543206  0.89977517  0.44903909    -0.05440
N484        N  0.43733176  0.86047344  0.45036065    -0.57960
N485        N  0.39109959  0.94774036  0.43923835    -0.03560
N486        N  0.35191126  0.93941948  0.43842156    -0.59210
N487        N  0.40156896  0.93829148  0.41576055    -0.05470
N488        N  0.36943610  0.92296864  0.39862561    -0.58220
N489        N  0.43467726  0.90893077  0.47253219    -0.03210
N490        N  0.41855840  0.87565888  0.49013426    -0.59300
Mn491      Mn  0.43279051  0.96763987  0.47533559     1.18440
C492        C  0.42142549  0.84605643  0.47623558     0.99000
C493        C  0.33874490  0.92418291  0.41297485     0.99660
N494        N  0.09006389  0.57219595  0.46719789    -0.05490
N495        N  0.12240684  0.58666152  0.48422276    -0.61800
N496        N  0.05595397  0.60114471  0.41081248    -0.04300
N497        N  0.07183576  0.63447664  0.39330254    -0.62480
N498        N  0.04452723  0.60982463  0.43422109    -0.05000
N499        N  0.05157764  0.64868405  0.43290447    -0.62070
N500        N  0.10020093  0.56301663  0.44351334    -0.03900
N501        N  0.13930118  0.57105965  0.44383167    -0.62760
Mn502      Mn  0.02867210  0.56888202  0.47193101     1.10660
C503        C  0.15282037  0.58556962  0.46931826     1.00220
C504        C  0.06784914  0.66342830  0.40718209     1.00300
N505        N  0.48053598  0.98382078  0.37322937    -0.05010
N506        N  0.46550758  0.97360230  0.34788351    -0.60380
N507        N  0.05903810  0.98364059  0.40770610    -0.04330
N508        N  0.09215113  0.97915245  0.40665301    -0.57110
N509        N  0.02410144  0.94645921  0.40935844    -0.05640
N510        N  0.03269085  0.91580930  0.40970256    -0.59950
N511        N  0.01553317  0.52109513  0.37230354    -0.04620
N512        N  0.02489230  0.53671431  0.34642711    -0.57130
Mn513      Mn  0.46236833  0.94137664  0.41131717     1.20190
Mn514      Mn  0.05818979  0.54277209  0.40802825     1.10090
Cl515      Cl  0.49544378  0.50517316  0.44164823    -0.85100
C516        C  0.49319052  0.50712432  0.33139899     0.97230
C517        C  0.07527458  0.93676712  0.40817917     0.97030
N518        N  0.40433668  0.94184599  0.21975231    -0.05260
N519        N  0.37023444  0.92233789  0.23577976    -0.57380
N520        N  0.43539184  0.91212782  0.16513157    -0.04940
N521        N  0.42036715  0.88023745  0.14835873    -0.59510
N522        N  0.44467421  0.90105226  0.18926831    -0.04540
N523        N  0.43611000  0.86166945  0.18944906    -0.57350
N524        N  0.39547595  0.95368510  0.19577031    -0.04210
N525        N  0.35553779  0.94282515  0.19512389    -0.59860
C526        C  0.34010402  0.92350440  0.22019904     0.96920
C527        C  0.42125765  0.84906889  0.16381157     0.96700
N528        N  0.01623031  0.52833570  0.12200428    -0.05440
N529        N  0.03174969  0.53712063  0.09632959    -0.57960
N530        N  0.44128699  0.53522992  0.15662014    -0.03560
N531        N  0.41055123  0.54368418  0.15718963    -0.59210
N532        N  0.47816869  0.57056019  0.15557108    -0.05470
N533        N  0.47335097  0.60363177  0.15522044    -0.58220
N534        N  0.47962302  0.99266589  0.12305603    -0.03210
N535        N  0.46972459  0.97645571  0.09828601    -0.59300
Mn536      Mn  0.43733035  0.97312015  0.15958685     1.18440
C537        C  0.50265929  0.00415592  0.08184205     0.99000
C538        C  0.43107680  0.58655137  0.15630003     0.99660
N539        N  0.02310763  0.94210066  0.22794323    -0.05490
N540        N  0.02922652  0.90981021  0.22984348    -0.61800
N541        N  0.01983852  0.51918713  0.25992285    -0.04300
N542        N  0.02831602  0.53499743  0.28488661    -0.62480
N543        N  0.48328857  0.98338619  0.26043472    -0.05000
N544        N  0.46639977  0.97420556  0.28572131    -0.62070
N545        N  0.05939342  0.97794414  0.22732844    -0.03900
N546        N  0.09089055  0.97093685  0.22881093    -0.62760
Mn547      Mn  0.46340419  0.94149954  0.22492037     1.10660
C548        C  0.07175651  0.92833685  0.23034433     1.00220
C549        C  0.49450966  0.50691380  0.30072109     1.00300
N550        N  0.05729993  0.61116655  0.19348871    -0.05010
N551        N  0.06706650  0.65094594  0.19363308    -0.60380
N552        N  0.10539127  0.55738667  0.18651198    -0.04330
N553        N  0.14448402  0.56514841  0.18600335    -0.57110
N554        N  0.09606991  0.56855905  0.16240076    -0.05640
N555        N  0.12886457  0.58450443  0.14519441    -0.59950
N556        N  0.06596842  0.59945511  0.21757327    -0.04620
N557        N  0.08193970  0.63105292  0.23448893    -0.57130
Mn558      Mn  0.03749654  0.57033989  0.15769581     1.20190
Mn559      Mn  0.06327198  0.53895409  0.22336275     1.10090
Cl560      Cl  0.50039647  0.50598255  0.19137633    -0.85100
C561        C  0.08222095  0.66296281  0.21937521     0.97230
C562        C  0.15846213  0.58121029  0.15998167     0.97030
C563        C  0.12987672  0.78168923  0.21794709     0.24460
C564        C  0.14045351  0.79146432  0.24609852    -0.23650
C565        C  0.13389916  0.75762116  0.26479241     0.19360
C566        C  0.11458343  0.71617633  0.25613430     0.24400
C567        C  0.10166376  0.70680896  0.22858886    -0.23600
C568        C  0.10970161  0.74009781  0.20958227     0.19300
F569        F  0.09861090  0.73277027  0.18257063    -0.13550
F570        F  0.13719526  0.81231471  0.19839202    -0.15920
F571        F  0.10913189  0.68522381  0.27494745    -0.15920
F572        F  0.14746940  0.76382412  0.29134222    -0.13560
C573        C  0.09495215  0.83946049  0.23752087     0.24460
C574        C  0.13892671  0.86140892  0.24337756    -0.23650
C575        C  0.15948893  0.90615611  0.24411473     0.19360
C576        C  0.13815753  0.92758491  0.23852140     0.24400
C577        C  0.09475758  0.90537481  0.23345993    -0.23600
C578        C  0.07354133  0.86120054  0.23267974     0.19300
F579        F  0.03142946  0.83847439  0.22804883    -0.13550
F580        F  0.07101951  0.79666029  0.23816973    -0.15920
F581        F  0.16025037  0.97044045  0.23919678    -0.15920
F582        F  0.20075445  0.93006728  0.25052585    -0.13560
C583        C  0.27905132  0.86995666  0.24953145     0.24460
C584        C  0.29464998  0.90006933  0.22734745    -0.23650
C585        C  0.26596258  0.90550697  0.21093801     0.19360
C586        C  0.22313436  0.88417429  0.21809810     0.24400
C587        C  0.20790302  0.85763108  0.24253636    -0.23600
C588        C  0.23621264  0.84780770  0.25627109     0.19300
F589        F  0.22346304  0.81954338  0.27818700    -0.13550
F590        F  0.30519417  0.86189775  0.26507093    -0.15920
F591        F  0.19719343  0.89004944  0.20085596    -0.15920
F592        F  0.27923884  0.93195889  0.18797558    -0.13560
C593        C  0.09041309  0.77379395  0.39030326     0.24460
C594        C  0.13561692  0.79862589  0.38997680    -0.23650
C595        C  0.15570544  0.77633881  0.40024786     0.19360
C596        C  0.13392219  0.73226590  0.40301030     0.24400
C597        C  0.09046548  0.70872486  0.39956775    -0.23600
C598        C  0.06861710  0.72981086  0.39476261     0.19300
F599        F  0.02578008  0.70782989  0.39512018    -0.13550
F600        F  0.06604812  0.79149595  0.38866129    -0.15920
F601        F  0.15504089  0.71264376  0.41150570    -0.15920
F602        F  0.19484015  0.79573992  0.41103256    -0.13560
C603        C  0.09465157  0.88204507  0.42008336     0.24460
C604        C  0.09972892  0.91637493  0.40334581    -0.23650
C605        C  0.12859395  0.93159375  0.38129706     0.19360
C606        C  0.14920656  0.91061534  0.37422019     0.24400
C607        C  0.14106910  0.87263474  0.38873736    -0.23600
C608        C  0.11683206  0.86184596  0.41376935     0.19300
F609        F  0.11498494  0.83229361  0.43244905    -0.13550
F610        F  0.06914815  0.86882067  0.44295045    -0.15920
F611        F  0.17756350  0.92892399  0.35318444    -0.15920
F612        F  0.13591889  0.96634483  0.36568180    -0.13560
C613        C  0.23618357  0.85736619  0.37579806     0.24460
C614        C  0.20814777  0.86798833  0.38841438    -0.23650
C615        C  0.22516630  0.89749566  0.40982063     0.19360
C616        C  0.26749373  0.91602785  0.41720676     0.24400
C617        C  0.29471469  0.90625500  0.40372260    -0.23600
C618        C  0.27865688  0.87693334  0.38282708     0.19300
F619        F  0.30359446  0.86567742  0.36976479    -0.13550
F620        F  0.22199524  0.82681621  0.35688611    -0.15920
F621        F  0.28172678  0.94368782  0.43795325    -0.15920
F622        F  0.20141078  0.90793743  0.42492617    -0.13560
C623        C  0.19654469  0.87717468  0.32915299     0.24460
C624        C  0.16034491  0.84837180  0.34571485    -0.23650
C625        C  0.12318688  0.82393660  0.33034440     0.19360
C626        C  0.12436371  0.82072826  0.30174468     0.24400
C627        C  0.16229482  0.84353245  0.28626428    -0.23600
C628        C  0.19739914  0.87490871  0.30047935     0.19300
F629        F  0.23285078  0.90536184  0.28706468    -0.13550
F630        F  0.23106854  0.91055128  0.34001779    -0.15920
F631        F  0.08759891  0.79385571  0.28939205    -0.15920
F632        F  0.08433639  0.80480802  0.34165250    -0.13560
C633        C  0.22809308  0.64718137  0.15635140     0.24460
C634        C  0.20345944  0.60396250  0.15206028    -0.23650
C635        C  0.22200086  0.58330839  0.14031091     0.19360
C636        C  0.26511221  0.60559383  0.13335775     0.24400
C637        C  0.29161311  0.64916813  0.13902868    -0.23600
C638        C  0.27109254  0.66977230  0.14956069     0.19300
F639        F  0.29064999  0.71229856  0.15125692    -0.13550
F640        F  0.21005707  0.66804880  0.16661761    -0.15920
F641        F  0.28106838  0.58423505  0.12106953    -0.15920
F642        F  0.19822002  0.54154790  0.13524284    -0.13560
C643        C  0.40377025  0.79712935  0.12706359     0.24460
C644        C  0.40358947  0.80522623  0.15509806    -0.23650
C645        C  0.38640081  0.77108485  0.17476454     0.19360
C646        C  0.36724310  0.72945880  0.16631078     0.24400
C647        C  0.36378837  0.72043022  0.13779280    -0.23600
C648        C  0.38565888  0.75569689  0.11852431     0.19300
F649        F  0.39275350  0.75135313  0.09167833    -0.13550
F650        F  0.42310648  0.82961712  0.10781684    -0.15920
F651        F  0.34981000  0.69757847  0.18608991    -0.15920
F652        F  0.38642756  0.77772181  0.20224630    -0.13560
C653        C  0.43036956  0.65175238  0.14086936     0.24600
C654        C  0.41021263  0.61184746  0.15472130    -0.23650
C655        C  0.36989495  0.59634929  0.16630076     0.19360
C656        C  0.34847308  0.61833315  0.16167375     0.24400
C657        C  0.36530457  0.65426511  0.14294135    -0.23600
C658        C  0.40851288  0.67278370  0.13517561     0.19300
F659        F  0.42837998  0.70887417  0.11896802    -0.13550
F660        F  0.47020350  0.66901112  0.13055062    -0.15920
F661        F  0.31184215  0.60421020  0.17589834    -0.15920
F662        F  0.35122137  0.55995339  0.18231086    -0.13560
C663        C  0.20507462  0.59957890  0.00664519     0.24460
C664        C  0.19659105  0.60174753  0.47852580    -0.23650
C665        C  0.23023742  0.61897555  0.45919629     0.19360
C666        C  0.27190448  0.63689749  0.46812016     0.24400
C667        C  0.28139357  0.63903872  0.49675982    -0.23600
C668        C  0.24647691  0.61624987  0.01561169     0.19300
F669        F  0.25113768  0.60719518  0.04249554    -0.13550
F670        F  0.17297506  0.57968140  0.02554268    -0.15920
F671        F  0.30336472  0.65473296  0.44869678    -0.15920
F672        F  0.22311601  0.62029137  0.43159779    -0.13560
C673        C  0.39599623  0.73758592  0.00331124     0.24460
C674        C  0.35265275  0.71160647  0.49642524    -0.23650
C675        C  0.33250706  0.73291636  0.48482723     0.19360
C676        C  0.35527660  0.77645121  0.47853047     0.24400
C677        C  0.39817224  0.80071429  0.48434868    -0.23600
C678        C  0.41841255  0.78120595  0.49687960     0.19300
F679        F  0.45995988  0.80447713  0.00306124    -0.13550
F680        F  0.41700587  0.72056529  0.01625346    -0.15920
F681        F  0.33495485  0.79529168  0.46706464    -0.15920
F682        F  0.29024884  0.71348009  0.48151302    -0.13560
C683        C  0.40443456  0.63526389  0.46878597     0.24460
C684        C  0.38977038  0.59417231  0.47990705    -0.23650
C685        C  0.35110329  0.57330340  0.49444998     0.19360
C686        C  0.33032188  0.59480097  0.50071777     0.24400
C687        C  0.34798639  0.63840856  0.49305996    -0.23600
C688        C  0.38286375  0.65642633  0.47414909     0.19300
F689        F  0.39611263  0.69388250  0.46011300    -0.13550
F690        F  0.43955294  0.65493966  0.45231796    -0.15920
F691        F  0.29511689  0.57391523  0.51698988    -0.15920
F692        F  0.33471823  0.53285016  0.50451475    -0.13560
C693        C  0.31650123  0.68637970  0.08153180     0.24460
C694        C  0.33683159  0.66899146  0.09742399    -0.23650
C695        C  0.35223643  0.64696785  0.08277058     0.19360
C696        C  0.35370990  0.64856994  0.05394204     0.24400
C697        C  0.33228097  0.66474320  0.03802542    -0.23600
C698        C  0.31470193  0.68474241  0.05270843     0.19300
F699        F  0.29437362  0.70198590  0.03913947    -0.13550
F700        F  0.29933244  0.70658558  0.09386360    -0.15920
F701        F  0.37826137  0.63564193  0.04242982    -0.15920
F702        F  0.36431192  0.62151140  0.09556355    -0.13560
C703        C  0.32862907  0.66338822  0.50576580    -0.01630
C704        C  0.33929555  0.67312869  0.62957689    -0.01630
C705        C  0.16107448  0.84682655  0.87868787    -0.01630
C706        C  0.16228938  0.83842515  0.75434765    -0.01630
N707        N  0.46644927  0.56385840  0.97475173    -0.05260
N708        N  0.45762176  0.59436954  0.97507367    -0.57380
N709        N  0.47639498  0.98957256  0.51096881    -0.04940
N710        N  0.46868100  0.97398933  0.53689800    -0.59510
N711        N  0.01157695  0.52667819  0.50954959    -0.04540
N712        N  0.02842317  0.53686498  0.53440598    -0.57350
N713        N  0.43151843  0.52665758  0.97627675    -0.04210
N714        N  0.39830770  0.53104719  0.97787670    -0.59860
C715        C  0.41492971  0.57343806  0.97698962     0.96920
C716        C  0.50167269  0.00353001  0.55123514     0.96700
N717        N  0.44543206  0.89977516  0.94903909    -0.05440
N718        N  0.43733176  0.86047343  0.95036065    -0.57960
N719        N  0.39109959  0.94774036  0.93923835    -0.03560
N720        N  0.35191126  0.93941948  0.93842156    -0.59210
N721        N  0.40156896  0.93829147  0.91576055    -0.05470
N722        N  0.36943610  0.92296863  0.89862561    -0.58220
N723        N  0.43467726  0.90893077  0.97253219    -0.03210
N724        N  0.41855840  0.87565887  0.99013426    -0.59300
Mn725      Mn  0.43279051  0.96763987  0.97533559     1.18440
C726        C  0.42142549  0.84605643  0.97623558     0.99000
C727        C  0.33874490  0.92418290  0.91297485     0.99660
N728        N  0.09006389  0.57219595  0.96719789    -0.05490
N729        N  0.12240684  0.58666152  0.98422276    -0.61800
N730        N  0.05595397  0.60114471  0.91081248    -0.04300
N731        N  0.07183575  0.63447664  0.89330254    -0.62480
N732        N  0.04452723  0.60982463  0.93422109    -0.05000
N733        N  0.05157764  0.64868405  0.93290447    -0.62070
N734        N  0.10020093  0.56301663  0.94351334    -0.03900
N735        N  0.13930118  0.57105965  0.94383167    -0.62760
Mn736      Mn  0.02867210  0.56888202  0.97193101     1.10660
C737        C  0.15282037  0.58556962  0.96931826     1.00220
C738        C  0.06784913  0.66342830  0.90718209     1.00300
N739        N  0.48053598  0.98382078  0.87322937    -0.05010
N740        N  0.46550758  0.97360230  0.84788351    -0.60380
N741        N  0.05903810  0.98364059  0.90770610    -0.04330
N742        N  0.09215113  0.97915245  0.90665301    -0.57110
N743        N  0.02410144  0.94645921  0.90935844    -0.05640
N744        N  0.03269085  0.91580929  0.90970256    -0.59950
N745        N  0.01553317  0.52109513  0.87230354    -0.04620
N746        N  0.02489230  0.53671431  0.84642711    -0.57130
Mn747      Mn  0.46236833  0.94137664  0.91131717     1.20190
Mn748      Mn  0.05818979  0.54277208  0.90802826     1.10090
Cl749      Cl  0.49544377  0.50517315  0.94164823    -0.85100
C750        C  0.49319052  0.50712432  0.83139899     0.97230
C751        C  0.07527458  0.93676712  0.90817917     0.97030
N752        N  0.40433667  0.94184599  0.71975231    -0.05260
N753        N  0.37023444  0.92233789  0.73577976    -0.57380
N754        N  0.43539184  0.91212783  0.66513157    -0.04940
N755        N  0.42036715  0.88023745  0.64835873    -0.59510
N756        N  0.44467421  0.90105226  0.68926831    -0.04540
N757        N  0.43611000  0.86166945  0.68944906    -0.57350
N758        N  0.39547595  0.95368510  0.69577031    -0.04210
N759        N  0.35553778  0.94282515  0.69512389    -0.59860
C760        C  0.34010402  0.92350441  0.72019904     0.96920
C761        C  0.42125764  0.84906889  0.66381157     0.96700
N762        N  0.01623030  0.52833570  0.62200428    -0.05440
N763        N  0.03174968  0.53712063  0.59632959    -0.57960
N764        N  0.44128698  0.53522992  0.65662014    -0.03560
N765        N  0.41055122  0.54368418  0.65718963    -0.59210
N766        N  0.47816869  0.57056020  0.65557108    -0.05470
N767        N  0.47335097  0.60363178  0.65522044    -0.58220
N768        N  0.47962301  0.99266590  0.62305603    -0.03210
N769        N  0.46972459  0.97645571  0.59828601    -0.59300
Mn770      Mn  0.43733034  0.97312016  0.65958685     1.18440
C771        C  0.50265929  0.00415592  0.58184206     0.99000
C772        C  0.43107680  0.58655138  0.65630003     0.99660
N773        N  0.02310763  0.94210067  0.72794323    -0.05490
N774        N  0.02922652  0.90981021  0.72984348    -0.61800
N775        N  0.01983851  0.51918713  0.75992285    -0.04300
N776        N  0.02831601  0.53499743  0.78488662    -0.62480
N777        N  0.48328857  0.98338619  0.76043472    -0.05000
N778        N  0.46639977  0.97420556  0.78572131    -0.62070
N779        N  0.05939342  0.97794415  0.72732844    -0.03900
N780        N  0.09089055  0.97093686  0.72881093    -0.62760
Mn781      Mn  0.46340419  0.94149954  0.72492037     1.10660
C782        C  0.07175651  0.92833685  0.73034433     1.00220
C783        C  0.49450966  0.50691379  0.80072109     1.00300
N784        N  0.05729992  0.61116655  0.69348871    -0.05010
N785        N  0.06706649  0.65094594  0.69363308    -0.60380
N786        N  0.10539126  0.55738668  0.68651198    -0.04330
N787        N  0.14448402  0.56514841  0.68600336    -0.57110
N788        N  0.09606990  0.56855905  0.66240076    -0.05640
N789        N  0.12886457  0.58450443  0.64519442    -0.59950
N790        N  0.06596841  0.59945511  0.71757327    -0.04620
N791        N  0.08193969  0.63105292  0.73448893    -0.57130
Mn792      Mn  0.03749654  0.57033989  0.65769581     1.20190
Mn793      Mn  0.06327198  0.53895409  0.72336275     1.10090
Cl794      Cl  0.50039647  0.50598256  0.69137633    -0.85100
C795        C  0.08222095  0.66296281  0.71937521     0.97230
C796        C  0.15846212  0.58121030  0.65998168     0.97030
C797        C  0.12987671  0.78168923  0.71794709     0.24460
C798        C  0.14045350  0.79146433  0.74609852    -0.23650
C799        C  0.13389916  0.75762117  0.76479241     0.19360
C800        C  0.11458343  0.71617633  0.75613430     0.24400
C801        C  0.10166376  0.70680896  0.72858886    -0.23600
C802        C  0.10970161  0.74009782  0.70958227     0.19300
F803        F  0.09861089  0.73277027  0.68257063    -0.13550
F804        F  0.13719525  0.81231472  0.69839202    -0.15920
F805        F  0.10913189  0.68522382  0.77494745    -0.15920
F806        F  0.14746940  0.76382413  0.79134222    -0.13560
C807        C  0.09495215  0.83946049  0.73752087     0.24460
C808        C  0.13892671  0.86140892  0.74337756    -0.23650
C809        C  0.15948893  0.90615611  0.74411473     0.19360
C810        C  0.13815753  0.92758491  0.73852140     0.24400
C811        C  0.09475758  0.90537481  0.73345993    -0.23600
C812        C  0.07354133  0.86120054  0.73267974     0.19300
F813        F  0.03142946  0.83847440  0.72804883    -0.13550
F814        F  0.07101950  0.79666030  0.73816974    -0.15920
F815        F  0.16025037  0.97044046  0.73919677    -0.15920
F816        F  0.20075445  0.93006728  0.75052584    -0.13560
C817        C  0.27905131  0.86995667  0.74953145     0.24460
C818        C  0.29464997  0.90006933  0.72734745    -0.23650
C819        C  0.26596257  0.90550697  0.71093801     0.19360
C820        C  0.22313435  0.88417429  0.71809810     0.24400
C821        C  0.20790302  0.85763108  0.74253637    -0.23600
C822        C  0.23621264  0.84780771  0.75627109     0.19300
F823        F  0.22346304  0.81954340  0.77818701    -0.13550
F824        F  0.30519417  0.86189776  0.76507093    -0.15920
F825        F  0.19719343  0.89004944  0.70085596    -0.15920
F826        F  0.27923883  0.93195889  0.68797558    -0.13560
C827        C  0.09041309  0.77379395  0.89030326     0.24460
C828        C  0.13561691  0.79862588  0.88997680    -0.23650
C829        C  0.15570544  0.77633880  0.90024785     0.19360
C830        C  0.13392219  0.73226590  0.90301029     0.24400
C831        C  0.09046548  0.70872486  0.89956775    -0.23600
C832        C  0.06861710  0.72981086  0.89476261     0.19300
F833        F  0.02578008  0.70782988  0.89512018    -0.13550
F834        F  0.06604811  0.79149595  0.88866129    -0.15920
F835        F  0.15504089  0.71264375  0.91150569    -0.15920
F836        F  0.19484015  0.79573991  0.91103255    -0.13560
C837        C  0.09465156  0.88204507  0.92008336     0.24460
C838        C  0.09972892  0.91637493  0.90334581    -0.23650
C839        C  0.12859396  0.93159375  0.88129707     0.19360
C840        C  0.14920657  0.91061534  0.87422020     0.24400
C841        C  0.14106910  0.87263474  0.88873737    -0.23600
C842        C  0.11683205  0.86184595  0.91376935     0.19300
F843        F  0.11498493  0.83229360  0.93244905    -0.13550
F844        F  0.06914814  0.86882066  0.94295044    -0.15920
F845        F  0.17756352  0.92892400  0.85318445    -0.15920
F846        F  0.13591891  0.96634484  0.86568181    -0.13560
C847        C  0.23618357  0.85736619  0.87579805     0.24460
C848        C  0.20814777  0.86798833  0.88841438    -0.23650
C849        C  0.22516629  0.89749564  0.90982064     0.19360
C850        C  0.26749373  0.91602783  0.91720677     0.24400
C851        C  0.29471469  0.90625499  0.90372260    -0.23600
C852        C  0.27865688  0.87693334  0.88282708     0.19300
F853        F  0.30359446  0.86567743  0.86976478    -0.13550
F854        F  0.22199524  0.82681622  0.85688611    -0.15920
F855        F  0.28172677  0.94368780  0.93795326    -0.15920
F856        F  0.20141077  0.90793740  0.92492619    -0.13560
C857        C  0.19654469  0.87717469  0.82915300     0.24460
C858        C  0.16034491  0.84837180  0.84571485    -0.23650
C859        C  0.12318687  0.82393660  0.83034440     0.19360
C860        C  0.12436371  0.82072826  0.80174468     0.24400
C861        C  0.16229482  0.84353246  0.78626428    -0.23600
C862        C  0.19739914  0.87490871  0.80047935     0.19300
F863        F  0.23285077  0.90536185  0.78706468    -0.13550
F864        F  0.23106854  0.91055128  0.84001779    -0.15920
F865        F  0.08759890  0.79385571  0.78939205    -0.15920
F866        F  0.08433638  0.80480801  0.84165250    -0.13560
C867        C  0.22809308  0.64718138  0.65635140     0.24460
C868        C  0.20345943  0.60396250  0.65206029    -0.23650
C869        C  0.22200085  0.58330839  0.64031091     0.19360
C870        C  0.26511221  0.60559384  0.63335775     0.24400
C871        C  0.29161310  0.64916813  0.63902868    -0.23600
C872        C  0.27109254  0.66977230  0.64956069     0.19300
F873        F  0.29064998  0.71229856  0.65125692    -0.13550
F874        F  0.21005706  0.66804881  0.66661761    -0.15920
F875        F  0.28106837  0.58423505  0.62106953    -0.15920
F876        F  0.19822002  0.54154790  0.63524285    -0.13560
C877        C  0.40377025  0.79712935  0.62706359     0.24460
C878        C  0.40358946  0.80522623  0.65509806    -0.23650
C879        C  0.38640080  0.77108485  0.67476454     0.19360
C880        C  0.36724309  0.72945881  0.66631078     0.24400
C881        C  0.36378836  0.72043022  0.63779280    -0.23600
C882        C  0.38565888  0.75569689  0.61852431     0.19300
F883        F  0.39275350  0.75135313  0.59167833    -0.13550
F884        F  0.42310647  0.82961713  0.60781684    -0.15920
F885        F  0.34981000  0.69757848  0.68608991    -0.15920
F886        F  0.38642756  0.77772182  0.70224630    -0.13560
C887        C  0.43036956  0.65175239  0.64086936     0.24600
C888        C  0.41021263  0.61184747  0.65472130    -0.23650
C889        C  0.36989495  0.59634930  0.66630077     0.19360
C890        C  0.34847307  0.61833315  0.66167375     0.24400
C891        C  0.36530456  0.65426511  0.64294135    -0.23600
C892        C  0.40851288  0.67278370  0.63517561     0.19300
F893        F  0.42837997  0.70887418  0.61896802    -0.13550
F894        F  0.47020350  0.66901113  0.63055062    -0.15920
F895        F  0.31184214  0.60421021  0.67589834    -0.15920
F896        F  0.35122137  0.55995339  0.68231086    -0.13560
C897        C  0.20507462  0.59957890  0.50664518     0.24460
C898        C  0.19659105  0.60174752  0.97852580    -0.23650
C899        C  0.23023742  0.61897555  0.95919629     0.19360
C900        C  0.27190448  0.63689749  0.96812016     0.24400
C901        C  0.28139356  0.63903872  0.99675982    -0.23600
C902        C  0.24647691  0.61624987  0.51561169     0.19300
F903        F  0.25113768  0.60719518  0.54249554    -0.13550
F904        F  0.17297506  0.57968140  0.52554268    -0.15920
F905        F  0.30336472  0.65473296  0.94869678    -0.15920
F906        F  0.22311601  0.62029137  0.93159779    -0.13560
C907        C  0.39599623  0.73758592  0.50331124     0.24460
C908        C  0.35265275  0.71160647  0.99642524    -0.23650
C909        C  0.33250706  0.73291635  0.98482723     0.19360
C910        C  0.35527660  0.77645121  0.97853047     0.24400
C911        C  0.39817224  0.80071428  0.98434868    -0.23600
C912        C  0.41841255  0.78120594  0.99687960     0.19300
F913        F  0.45995988  0.80447714  0.50306124    -0.13550
F914        F  0.41700587  0.72056530  0.51625346    -0.15920
F915        F  0.33495484  0.79529167  0.96706464    -0.15920
F916        F  0.29024884  0.71348008  0.98151302    -0.13560
C917        C  0.40443456  0.63526388  0.96878597     0.24460
C918        C  0.38977038  0.59417230  0.97990705    -0.23650
C919        C  0.35110328  0.57330339  0.99444998     0.19360
C920        C  0.33032187  0.59480097  0.00071777     0.24400
C921        C  0.34798639  0.63840856  0.99305996    -0.23600
C922        C  0.38286375  0.65642633  0.97414909     0.19300
F923        F  0.39611263  0.69388249  0.96011300    -0.13550
F924        F  0.43955294  0.65493965  0.95231796    -0.15920
F925        F  0.29511688  0.57391523  0.01698988    -0.15920
F926        F  0.33471822  0.53285016  0.00451475    -0.13560
C927        C  0.31650123  0.68637970  0.58153180     0.24460
C928        C  0.33683158  0.66899146  0.59742399    -0.23650
C929        C  0.35223643  0.64696785  0.58277058     0.19360
C930        C  0.35370990  0.64856994  0.55394205     0.24400
C931        C  0.33228097  0.66474320  0.53802542    -0.23600
C932        C  0.31470193  0.68474241  0.55270843     0.19300
F933        F  0.29437361  0.70198591  0.53913947    -0.13550
F934        F  0.29933243  0.70658558  0.59386360    -0.15920
F935        F  0.37826137  0.63564193  0.54242982    -0.15920
F936        F  0.36431191  0.62151140  0.59556355    -0.13560
C937        C  0.82862907  0.16338822  0.00576580    -0.01630
C938        C  0.83929555  0.17312869  0.12957689    -0.01630
C939        C  0.66107448  0.34682655  0.37868787    -0.01630
C940        C  0.66228938  0.33842514  0.25434765    -0.01630
N941        N  0.96644927  0.06385840  0.47475173    -0.05260
N942        N  0.95762176  0.09436955  0.47507367    -0.57380
N943        N  0.97639498  0.48957256  0.01096881    -0.04940
N944        N  0.96868100  0.47398933  0.03689800    -0.59510
N945        N  0.51157695  0.02667820  0.00954959    -0.04540
N946        N  0.52842317  0.03686498  0.03440597    -0.57350
N947        N  0.93151843  0.02665758  0.47627675    -0.04210
N948        N  0.89830770  0.03104720  0.47787671    -0.59860
C949        C  0.91492972  0.07343807  0.47698963     0.96920
C950        C  0.00167269  0.50353001  0.05123514     0.96700
N951        N  0.94543206  0.39977517  0.44903909    -0.05440
N952        N  0.93733176  0.36047344  0.45036065    -0.57960
N953        N  0.89109959  0.44774036  0.43923835    -0.03560
N954        N  0.85191126  0.43941948  0.43842156    -0.59210
N955        N  0.90156896  0.43829148  0.41576055    -0.05470
N956        N  0.86943610  0.42296864  0.39862561    -0.58220
N957        N  0.93467726  0.40893077  0.47253219    -0.03210
N958        N  0.91855840  0.37565888  0.49013426    -0.59300
Mn959      Mn  0.93279051  0.46763987  0.47533559     1.18440
C960        C  0.92142549  0.34605643  0.47623558     0.99000
C961        C  0.83874490  0.42418291  0.41297485     0.99660
N962        N  0.59006389  0.07219595  0.46719789    -0.05490
N963        N  0.62240684  0.08666152  0.48422276    -0.61800
N964        N  0.55595397  0.10114471  0.41081248    -0.04300
N965        N  0.57183576  0.13447664  0.39330254    -0.62480
N966        N  0.54452724  0.10982463  0.43422109    -0.05000
N967        N  0.55157764  0.14868405  0.43290447    -0.62070
N968        N  0.60020094  0.06301663  0.44351334    -0.03900
N969        N  0.63930118  0.07105965  0.44383167    -0.62760
Mn970      Mn  0.52867210  0.06888202  0.47193101     1.10660
C971        C  0.65282037  0.08556962  0.46931826     1.00220
C972        C  0.56784914  0.16342830  0.40718209     1.00300
N973        N  0.98053598  0.48382079  0.37322937    -0.05010
N974        N  0.96550758  0.47360231  0.34788351    -0.60380
N975        N  0.55903810  0.48364059  0.40770610    -0.04330
N976        N  0.59215113  0.47915245  0.40665301    -0.57110
N977        N  0.52410144  0.44645922  0.40935844    -0.05640
N978        N  0.53269085  0.41580930  0.40970256    -0.59950
N979        N  0.51553318  0.02109513  0.37230354    -0.04620
N980        N  0.52489231  0.03671431  0.34642711    -0.57130
Mn981      Mn  0.96236833  0.44137665  0.41131717     1.20190
Mn982      Mn  0.55818979  0.04277209  0.40802825     1.10090
Cl983      Cl  0.99544378  0.00517316  0.44164823    -0.85100
C984        C  0.99319052  0.00712432  0.33139899     0.97230
C985        C  0.57527458  0.43676712  0.40817917     0.97030
N986        N  0.90433668  0.44184599  0.21975231    -0.05260
N987        N  0.87023444  0.42233789  0.23577976    -0.57380
N988        N  0.93539184  0.41212783  0.16513158    -0.04940
N989        N  0.92036715  0.38023745  0.14835873    -0.59510
N990        N  0.94467421  0.40105226  0.18926831    -0.04540
N991        N  0.93611000  0.36166945  0.18944906    -0.57350
N992        N  0.89547595  0.45368510  0.19577031    -0.04210
N993        N  0.85553779  0.44282515  0.19512389    -0.59860
C994        C  0.84010402  0.42350440  0.22019904     0.96920
C995        C  0.92125765  0.34906889  0.16381157     0.96700
N996        N  0.51623031  0.02833570  0.12200428    -0.05440
N997        N  0.53174969  0.03712063  0.09632959    -0.57960
N998        N  0.94128699  0.03522992  0.15662014    -0.03560
N999        N  0.91055123  0.04368418  0.15718963    -0.59210
N1000       N  0.97816869  0.07056019  0.15557108    -0.05470
N1001       N  0.97335097  0.10363178  0.15522044    -0.58220
N1002       N  0.97962302  0.49266589  0.12305603    -0.03210
N1003       N  0.96972459  0.47645571  0.09828601    -0.59300
Mn1004     Mn  0.93733035  0.47312015  0.15958685     1.18440
C1005       C  0.00265929  0.50415592  0.08184206     0.99000
C1006       C  0.93107680  0.08655137  0.15630003     0.99660
N1007       N  0.52310763  0.44210066  0.22794322    -0.05490
N1008       N  0.52922652  0.40981021  0.22984348    -0.61800
N1009       N  0.51983852  0.01918713  0.25992285    -0.04300
N1010       N  0.52831602  0.03499743  0.28488661    -0.62480
N1011       N  0.98328857  0.48338619  0.26043472    -0.05000
N1012       N  0.96639977  0.47420556  0.28572131    -0.62070
N1013       N  0.55939342  0.47794414  0.22732844    -0.03900
N1014       N  0.59089055  0.47093685  0.22881093    -0.62760
Mn1015     Mn  0.96340419  0.44149954  0.22492037     1.10660
C1016       C  0.57175651  0.42833685  0.23034433     1.00220
C1017       C  0.99450966  0.00691380  0.30072109     1.00300
N1018       N  0.55729993  0.11116655  0.19348871    -0.05010
N1019       N  0.56706650  0.15094593  0.19363308    -0.60380
N1020       N  0.60539127  0.05738667  0.18651198    -0.04330
N1021       N  0.64448403  0.06514841  0.18600335    -0.57110
N1022       N  0.59606991  0.06855905  0.16240076    -0.05640
N1023       N  0.62886458  0.08450442  0.14519441    -0.59950
N1024       N  0.56596842  0.09945510  0.21757327    -0.04620
N1025       N  0.58193970  0.13105292  0.23448893    -0.57130
Mn1026     Mn  0.53749655  0.07033989  0.15769581     1.20190
Mn1027     Mn  0.56327198  0.03895409  0.22336275     1.10090
Cl1028     Cl  0.00039648  0.00598255  0.19137633    -0.85100
C1029       C  0.58222095  0.16296281  0.21937521     0.97230
C1030       C  0.65846213  0.08121029  0.15998167     0.97030
C1031       C  0.62987671  0.28168923  0.21794709     0.24460
C1032       C  0.64045351  0.29146432  0.24609852    -0.23650
C1033       C  0.63389916  0.25762116  0.26479240     0.19360
C1034       C  0.61458344  0.21617633  0.25613430     0.24400
C1035       C  0.60166376  0.20680896  0.22858886    -0.23600
C1036       C  0.60970161  0.24009781  0.20958227     0.19300
F1037       F  0.59861088  0.23277026  0.18257063    -0.13550
F1038       F  0.63719524  0.31231471  0.19839202    -0.15920
F1039       F  0.60913191  0.18522381  0.27494744    -0.15920
F1040       F  0.64746941  0.26382412  0.29134222    -0.13560
C1041       C  0.59495215  0.33946049  0.23752087     0.24460
C1042       C  0.63892671  0.36140892  0.24337756    -0.23650
C1043       C  0.65948893  0.40615611  0.24411472     0.19360
C1044       C  0.63815753  0.42758491  0.23852140     0.24400
C1045       C  0.59475758  0.40537481  0.23345993    -0.23600
C1046       C  0.57354133  0.36120053  0.23267974     0.19300
F1047       F  0.53142946  0.33847439  0.22804884    -0.13550
F1048       F  0.57101950  0.29666029  0.23816974    -0.15920
F1049       F  0.66025037  0.47044045  0.23919677    -0.15920
F1050       F  0.70075445  0.43006728  0.25052584    -0.13560
C1051       C  0.77905132  0.36995667  0.24953145     0.24460
C1052       C  0.79464998  0.40006933  0.22734745    -0.23650
C1053       C  0.76596257  0.40550696  0.21093801     0.19360
C1054       C  0.72313435  0.38417428  0.21809810     0.24400
C1055       C  0.70790302  0.35763108  0.24253637    -0.23600
C1056       C  0.73621264  0.34780771  0.25627110     0.19300
F1057       F  0.72346304  0.31954340  0.27818701    -0.13550
F1058       F  0.80519417  0.36189776  0.26507094    -0.15920
F1059       F  0.69719343  0.39004943  0.20085595    -0.15920
F1060       F  0.77923883  0.43195888  0.18797557    -0.13560
C1061       C  0.59041309  0.27379395  0.39030326     0.24460
C1062       C  0.63561692  0.29862588  0.38997680    -0.23650
C1063       C  0.65570544  0.27633881  0.40024786     0.19360
C1064       C  0.63392219  0.23226590  0.40301030     0.24400
C1065       C  0.59046548  0.20872486  0.39956775    -0.23600
C1066       C  0.56861710  0.22981086  0.39476261     0.19300
F1067       F  0.52578008  0.20782988  0.39512018    -0.13550
F1068       F  0.56604811  0.29149595  0.38866129    -0.15920
F1069       F  0.65504089  0.21264376  0.41150570    -0.15920
F1070       F  0.69484015  0.29573992  0.41103256    -0.13560
C1071       C  0.59465156  0.38204507  0.42008336     0.24460
C1072       C  0.59972892  0.41637493  0.40334581    -0.23650
C1073       C  0.62859395  0.43159375  0.38129706     0.19360
C1074       C  0.64920656  0.41061534  0.37422019     0.24400
C1075       C  0.64106910  0.37263474  0.38873736    -0.23600
C1076       C  0.61683205  0.36184596  0.41376935     0.19300
F1077       F  0.61498493  0.33229361  0.43244905    -0.13550
F1078       F  0.56914814  0.36882066  0.44295045    -0.15920
F1079       F  0.67756351  0.42892399  0.35318444    -0.15920
F1080       F  0.63591889  0.46634483  0.36568180    -0.13560
C1081       C  0.73618357  0.35736619  0.37579805     0.24460
C1082       C  0.70814777  0.36798833  0.38841438    -0.23650
C1083       C  0.72516630  0.39749565  0.40982063     0.19360
C1084       C  0.76749373  0.41602785  0.41720676     0.24400
C1085       C  0.79471469  0.40625500  0.40372260    -0.23600
C1086       C  0.77865688  0.37693334  0.38282708     0.19300
F1087       F  0.80359446  0.36567743  0.36976479    -0.13550
F1088       F  0.72199524  0.32681621  0.35688611    -0.15920
F1089       F  0.78172678  0.44368782  0.43795325    -0.15920
F1090       F  0.70141078  0.40793742  0.42492618    -0.13560
C1091       C  0.69654469  0.37717469  0.32915299     0.24460
C1092       C  0.66034491  0.34837180  0.34571485    -0.23650
C1093       C  0.62318688  0.32393660  0.33034440     0.19360
C1094       C  0.62436371  0.32072825  0.30174468     0.24400
C1095       C  0.66229482  0.34353245  0.28626428    -0.23600
C1096       C  0.69739914  0.37490871  0.30047935     0.19300
F1097       F  0.73285077  0.40536185  0.28706468    -0.13550
F1098       F  0.73106854  0.41055128  0.34001779    -0.15920
F1099       F  0.58759891  0.29385570  0.28939205    -0.15920
F1100       F  0.58433638  0.30480800  0.34165250    -0.13560
C1101       C  0.72809308  0.14718137  0.15635140     0.24460
C1102       C  0.70345944  0.10396250  0.15206028    -0.23650
C1103       C  0.72200086  0.08330839  0.14031091     0.19360
C1104       C  0.76511222  0.10559383  0.13335775     0.24400
C1105       C  0.79161311  0.14916813  0.13902868    -0.23600
C1106       C  0.77109254  0.16977230  0.14956069     0.19300
F1107       F  0.79064999  0.21229856  0.15125692    -0.13550
F1108       F  0.71005707  0.16804880  0.16661761    -0.15920
F1109       F  0.78106838  0.08423505  0.12106953    -0.15920
F1110       F  0.69822003  0.04154790  0.13524284    -0.13560
C1111       C  0.90377025  0.29712935  0.12706359     0.24460
C1112       C  0.90358947  0.30522623  0.15509806    -0.23650
C1113       C  0.88640081  0.27108485  0.17476454     0.19360
C1114       C  0.86724310  0.22945881  0.16631078     0.24400
C1115       C  0.86378837  0.22043022  0.13779280    -0.23600
C1116       C  0.88565888  0.25569689  0.11852431     0.19300
F1117       F  0.89275350  0.25135313  0.09167833    -0.13550
F1118       F  0.92310648  0.32961713  0.10781684    -0.15920
F1119       F  0.84981000  0.19757848  0.18608991    -0.15920
F1120       F  0.88642756  0.27772181  0.20224630    -0.13560
C1121       C  0.93036957  0.15175238  0.14086936     0.24600
C1122       C  0.91021263  0.11184746  0.15472130    -0.23650
C1123       C  0.86989495  0.09634930  0.16630077     0.19360
C1124       C  0.84847308  0.11833315  0.16167375     0.24400
C1125       C  0.86530457  0.15426511  0.14294135    -0.23600
C1126       C  0.90851288  0.17278370  0.13517561     0.19300
F1127       F  0.92837998  0.20887418  0.11896802    -0.13550
F1128       F  0.97020351  0.16901112  0.13055062    -0.15920
F1129       F  0.81184215  0.10421021  0.17589834    -0.15920
F1130       F  0.85122137  0.05995339  0.18231086    -0.13560
C1131       C  0.70507462  0.09957890  0.00664518     0.24460
C1132       C  0.69659105  0.10174753  0.47852580    -0.23650
C1133       C  0.73023742  0.11897555  0.45919629     0.19360
C1134       C  0.77190448  0.13689749  0.46812016     0.24400
C1135       C  0.78139357  0.13903872  0.49675982    -0.23600
C1136       C  0.74647691  0.11624987  0.01561169     0.19300
F1137       F  0.75113768  0.10719518  0.04249554    -0.13550
F1138       F  0.67297506  0.07968140  0.02554268    -0.15920
F1139       F  0.80336472  0.15473296  0.44869678    -0.15920
F1140       F  0.72311601  0.12029137  0.43159779    -0.13560
C1141       C  0.89599623  0.23758591  0.00331124     0.24460
C1142       C  0.85265275  0.21160647  0.49642524    -0.23650
C1143       C  0.83250706  0.23291636  0.48482723     0.19360
C1144       C  0.85527660  0.27645121  0.47853047     0.24400
C1145       C  0.89817224  0.30071429  0.48434868    -0.23600
C1146       C  0.91841255  0.28120595  0.49687960     0.19300
F1147       F  0.95995988  0.30447713  0.00306124    -0.13550
F1148       F  0.91700588  0.22056529  0.01625346    -0.15920
F1149       F  0.83495485  0.29529167  0.46706463    -0.15920
F1150       F  0.79024884  0.21348009  0.48151301    -0.13560
C1151       C  0.90443456  0.13526389  0.46878597     0.24460
C1152       C  0.88977039  0.09417231  0.47990705    -0.23650
C1153       C  0.85110329  0.07330340  0.49444998     0.19360
C1154       C  0.83032188  0.09480097  0.50071777     0.24400
C1155       C  0.84798639  0.13840856  0.49305996    -0.23600
C1156       C  0.88286375  0.15642633  0.47414909     0.19300
F1157       F  0.89611264  0.19388250  0.46011300    -0.13550
F1158       F  0.93955294  0.15493966  0.45231796    -0.15920
F1159       F  0.79511689  0.07391523  0.51698988    -0.15920
F1160       F  0.83471823  0.03285016  0.50451475    -0.13560
C1161       C  0.81650124  0.18637970  0.08153180     0.24460
C1162       C  0.83683159  0.16899146  0.09742399    -0.23650
C1163       C  0.85223644  0.14696785  0.08277058     0.19360
C1164       C  0.85370990  0.14856994  0.05394205     0.24400
C1165       C  0.83228097  0.16474320  0.03802542    -0.23600
C1166       C  0.81470193  0.18474241  0.05270843     0.19300
F1167       F  0.79437362  0.20198590  0.03913947    -0.13550
F1168       F  0.79933244  0.20658558  0.09386360    -0.15920
F1169       F  0.87826138  0.13564193  0.04242982    -0.15920
F1170       F  0.86431192  0.12151140  0.09556355    -0.13560
C1171       C  0.82862907  0.16338823  0.50576580    -0.01630
C1172       C  0.83929555  0.17312870  0.62957689    -0.01630
C1173       C  0.66107448  0.34682655  0.87868787    -0.01630
C1174       C  0.66228938  0.33842515  0.75434765    -0.01630
N1175       N  0.96644927  0.06385839  0.97475174    -0.05260
N1176       N  0.95762176  0.09436954  0.97507368    -0.57380
N1177       N  0.97639498  0.48957256  0.51096881    -0.04940
N1178       N  0.96868099  0.47398933  0.53689800    -0.59510
N1179       N  0.51157696  0.02667820  0.50954959    -0.04540
N1180       N  0.52842318  0.03686498  0.53440597    -0.57350
N1181       N  0.93151843  0.02665757  0.97627676    -0.04210
N1182       N  0.89830770  0.03104719  0.97787671    -0.59860
C1183       C  0.91492971  0.07343806  0.97698963     0.96920
C1184       C  0.00167269  0.50353001  0.55123514     0.96700
N1185       N  0.94543206  0.39977516  0.94903909    -0.05440
N1186       N  0.93733176  0.36047343  0.95036065    -0.57960
N1187       N  0.89109959  0.44774036  0.93923835    -0.03560
N1188       N  0.85191126  0.43941948  0.93842157    -0.59210
N1189       N  0.90156896  0.43829147  0.91576055    -0.05470
N1190       N  0.86943610  0.42296863  0.89862561    -0.58220
N1191       N  0.93467726  0.40893077  0.97253219    -0.03210
N1192       N  0.91855840  0.37565887  0.99013426    -0.59300
Mn1193     Mn  0.93279051  0.46763987  0.97533559     1.18440
C1194       C  0.92142549  0.34605643  0.97623558     0.99000
C1195       C  0.83874490  0.42418290  0.91297486     0.99660
N1196       N  0.59006389  0.07219595  0.96719789    -0.05490
N1197       N  0.62240684  0.08666152  0.98422276    -0.61800
N1198       N  0.55595397  0.10114470  0.91081247    -0.04300
N1199       N  0.57183576  0.13447663  0.89330253    -0.62480
N1200       N  0.54452723  0.10982463  0.93422108    -0.05000
N1201       N  0.55157764  0.14868405  0.93290446    -0.62070
N1202       N  0.60020093  0.06301662  0.94351334    -0.03900
N1203       N  0.63930118  0.07105965  0.94383167    -0.62760
Mn1204     Mn  0.52867210  0.06888202  0.97193101     1.10660
C1205       C  0.65282037  0.08556962  0.96931826     1.00220
C1206       C  0.56784913  0.16342830  0.90718208     1.00300
N1207       N  0.98053598  0.48382078  0.87322937    -0.05010
N1208       N  0.96550758  0.47360230  0.84788351    -0.60380
N1209       N  0.55903810  0.48364058  0.90770610    -0.04330
N1210       N  0.59215113  0.47915245  0.90665301    -0.57110
N1211       N  0.52410144  0.44645921  0.90935844    -0.05640
N1212       N  0.53269085  0.41580929  0.90970256    -0.59950
N1213       N  0.51553317  0.02109512  0.87230354    -0.04620
N1214       N  0.52489230  0.03671430  0.84642711    -0.57130
Mn1215     Mn  0.96236833  0.44137664  0.91131717     1.20190
Mn1216     Mn  0.55818979  0.04277208  0.90802825     1.10090
Cl1217     Cl  0.99544377  0.00517315  0.94164824    -0.85100
C1218       C  0.99319052  0.00712432  0.83139900     0.97230
C1219       C  0.57527458  0.43676712  0.90817916     0.97030
N1220       N  0.90433667  0.44184599  0.71975231    -0.05260
N1221       N  0.87023443  0.42233789  0.73577976    -0.57380
N1222       N  0.93539183  0.41212783  0.66513158    -0.04940
N1223       N  0.92036715  0.38023745  0.64835873    -0.59510
N1224       N  0.94467421  0.40105226  0.68926831    -0.04540
N1225       N  0.93610999  0.36166945  0.68944906    -0.57350
N1226       N  0.89547594  0.45368510  0.69577032    -0.04210
N1227       N  0.85553778  0.44282515  0.69512389    -0.59860
C1228       C  0.84010401  0.42350440  0.72019904     0.96920
C1229       C  0.92125764  0.34906889  0.66381157     0.96700
N1230       N  0.51623031  0.02833571  0.62200428    -0.05440
N1231       N  0.53174969  0.03712064  0.59632959    -0.57960
N1232       N  0.94128699  0.03522992  0.65662014    -0.03560
N1233       N  0.91055123  0.04368418  0.65718963    -0.59210
N1234       N  0.97816869  0.07056020  0.65557108    -0.05470
N1235       N  0.97335097  0.10363178  0.65522044    -0.58220
N1236       N  0.97962301  0.49266589  0.62305603    -0.03210
N1237       N  0.96972458  0.47645571  0.59828601    -0.59300
Mn1238     Mn  0.93733034  0.47312015  0.65958685     1.18440
C1239       C  0.00265929  0.50415592  0.58184206     0.99000
C1240       C  0.93107680  0.08655138  0.65630003     0.99660
N1241       N  0.52310763  0.44210066  0.72794322    -0.05490
N1242       N  0.52922652  0.40981021  0.72984348    -0.61800
N1243       N  0.51983851  0.01918713  0.75992285    -0.04300
N1244       N  0.52831602  0.03499743  0.78488661    -0.62480
N1245       N  0.98328856  0.48338619  0.76043473    -0.05000
N1246       N  0.96639976  0.47420557  0.78572131    -0.62070
N1247       N  0.55939342  0.47794414  0.72732843    -0.03900
N1248       N  0.59089055  0.47093686  0.72881093    -0.62760
Mn1249     Mn  0.96340418  0.44149954  0.72492037     1.10660
C1250       C  0.57175651  0.42833685  0.73034433     1.00220
C1251       C  0.99450966  0.00691380  0.80072109     1.00300
N1252       N  0.55729992  0.11116655  0.69348871    -0.05010
N1253       N  0.56706649  0.15094594  0.69363308    -0.60380
N1254       N  0.60539127  0.05738668  0.68651198    -0.04330
N1255       N  0.64448402  0.06514841  0.68600336    -0.57110
N1256       N  0.59606991  0.06855905  0.66240076    -0.05640
N1257       N  0.62886457  0.08450443  0.64519442    -0.59950
N1258       N  0.56596842  0.09945511  0.71757327    -0.04620
N1259       N  0.58193969  0.13105292  0.73448893    -0.57130
Mn1260     Mn  0.53749654  0.07033989  0.65769581     1.20190
Mn1261     Mn  0.56327198  0.03895409  0.72336275     1.10090
Cl1262     Cl  0.00039647  0.00598256  0.69137633    -0.85100
C1263       C  0.58222094  0.16296281  0.71937521     0.97230
C1264       C  0.65846213  0.08121030  0.65998168     0.97030
C1265       C  0.62987674  0.28168923  0.71794709     0.24460
C1266       C  0.64045349  0.29146432  0.74609853    -0.23650
C1267       C  0.63389910  0.25762115  0.76479242     0.19360
C1268       C  0.61458337  0.21617632  0.75613431     0.24400
C1269       C  0.60166374  0.20680896  0.72858886    -0.23600
C1270       C  0.60970164  0.24009782  0.70958227     0.19300
F1271       F  0.59861097  0.23277028  0.68257063    -0.13550
F1272       F  0.63719532  0.31231473  0.69839202    -0.15920
F1273       F  0.60913178  0.18522379  0.77494747    -0.15920
F1274       F  0.64746932  0.26382410  0.79134224    -0.13560
C1275       C  0.59495215  0.33946049  0.73752084     0.24460
C1276       C  0.63892670  0.36140892  0.74337757    -0.23650
C1277       C  0.65948892  0.40615611  0.74411476     0.19360
C1278       C  0.63815752  0.42758491  0.73852144     0.24400
C1279       C  0.59475757  0.40537481  0.73345993    -0.23600
C1280       C  0.57354133  0.36120054  0.73267971     0.19300
F1281       F  0.53142948  0.33847441  0.72804877    -0.13550
F1282       F  0.57101951  0.29666030  0.73816969    -0.15920
F1283       F  0.66025035  0.47044045  0.73919684    -0.15920
F1284       F  0.70075442  0.43006727  0.75052591    -0.13560
C1285       C  0.77905129  0.36995662  0.74953142     0.24460
C1286       C  0.79464996  0.40006933  0.72734745    -0.23650
C1287       C  0.76596258  0.40550701  0.71093803     0.19360
C1288       C  0.72313435  0.38417433  0.71809812     0.24400
C1289       C  0.70790301  0.35763108  0.74253636    -0.23600
C1290       C  0.73621261  0.34780766  0.75627106     0.19300
F1291       F  0.72346300  0.31954331  0.77818695    -0.13550
F1292       F  0.80519413  0.36189766  0.76507088    -0.15920
F1293       F  0.69719344  0.39004951  0.70085598    -0.15920
F1294       F  0.77923885  0.43195898  0.68797562    -0.13560
C1295       C  0.59041309  0.27379394  0.89030323     0.24460
C1296       C  0.63561691  0.29862588  0.88997679    -0.23650
C1297       C  0.65570543  0.27633881  0.90024786     0.19360
C1298       C  0.63392219  0.23226590  0.90301030     0.24400
C1299       C  0.59046548  0.20872485  0.89956773    -0.23600
C1300       C  0.56861710  0.22981085  0.89476258     0.19300
F1301       F  0.52578008  0.20782987  0.89512013    -0.13550
F1302       F  0.56604811  0.29149593  0.88866127    -0.15920
F1303       F  0.65504088  0.21264376  0.91150572    -0.15920
F1304       F  0.69484013  0.29573991  0.91103259    -0.13560
C1305       C  0.59465155  0.38204506  0.92008336     0.24460
C1306       C  0.59972892  0.41637493  0.90334581    -0.23650
C1307       C  0.62859397  0.43159375  0.88129706     0.19360
C1308       C  0.64920657  0.41061534  0.87422020     0.24400
C1309       C  0.64106910  0.37263473  0.88873736    -0.23600
C1310       C  0.61683204  0.36184594  0.91376934     0.19300
F1311       F  0.61498491  0.33229358  0.93244904    -0.13550
F1312       F  0.56914813  0.36882065  0.94295043    -0.15920
F1313       F  0.67756354  0.42892400  0.85318445    -0.15920
F1314       F  0.63591892  0.46634484  0.86568181    -0.13560
C1315       C  0.73618356  0.35736617  0.87579807     0.24460
C1316       C  0.70814777  0.36798832  0.88841438    -0.23650
C1317       C  0.72516630  0.39749565  0.90982063     0.19360
C1318       C  0.76749373  0.41602785  0.91720677     0.24400
C1319       C  0.79471468  0.40625498  0.90372261    -0.23600
C1320       C  0.77865687  0.37693331  0.88282710     0.19300
F1321       F  0.80359445  0.36567739  0.86976481    -0.13550
F1322       F  0.72199523  0.32681618  0.85688613    -0.15920
F1323       F  0.78172678  0.44368783  0.93795325    -0.15920
F1324       F  0.70141078  0.40793743  0.92492617    -0.13560
C1325       C  0.69654472  0.37717467  0.82915300     0.24460
C1326       C  0.66034492  0.34837181  0.84571485    -0.23650
C1327       C  0.62318688  0.32393666  0.83034440     0.19360
C1328       C  0.62436371  0.32072830  0.80174468     0.24400
C1329       C  0.66229483  0.34353246  0.78626428    -0.23600
C1330       C  0.69739917  0.37490869  0.80047935     0.19300
F1331       F  0.73285082  0.40536180  0.78706469    -0.13550
F1332       F  0.73106857  0.41055126  0.84001779    -0.15920
F1333       F  0.58759889  0.29385579  0.78939205    -0.15920
F1334       F  0.58433639  0.30480814  0.84165250    -0.13560
C1335       C  0.72809308  0.14718138  0.65635140     0.24460
C1336       C  0.70345944  0.10396250  0.65206028    -0.23650
C1337       C  0.72200085  0.08330839  0.64031091     0.19360
C1338       C  0.76511221  0.10559384  0.63335775     0.24400
C1339       C  0.79161311  0.14916813  0.63902868    -0.23600
C1340       C  0.77109254  0.16977230  0.64956069     0.19300
F1341       F  0.79064999  0.21229856  0.65125692    -0.13550
F1342       F  0.71005707  0.16804881  0.66661761    -0.15920
F1343       F  0.78106838  0.08423505  0.62106953    -0.15920
F1344       F  0.69822002  0.04154791  0.63524285    -0.13560
C1345       C  0.90377025  0.29712935  0.62706360     0.24460
C1346       C  0.90358946  0.30522623  0.65509806    -0.23650
C1347       C  0.88640081  0.27108485  0.67476454     0.19360
C1348       C  0.86724309  0.22945881  0.66631078     0.24400
C1349       C  0.86378836  0.22043022  0.63779280    -0.23600
C1350       C  0.88565888  0.25569689  0.61852431     0.19300
F1351       F  0.89275350  0.25135313  0.59167833    -0.13550
F1352       F  0.92310648  0.32961713  0.60781684    -0.15920
F1353       F  0.84981000  0.19757848  0.68608991    -0.15920
F1354       F  0.88642756  0.27772182  0.70224630    -0.13560
C1355       C  0.93036956  0.15175239  0.64086936     0.24600
C1356       C  0.91021263  0.11184747  0.65472130    -0.23650
C1357       C  0.86989495  0.09634930  0.66630076     0.19360
C1358       C  0.84847307  0.11833315  0.66167375     0.24400
C1359       C  0.86530457  0.15426511  0.64294135    -0.23600
C1360       C  0.90851288  0.17278370  0.63517561     0.19300
F1361       F  0.92837998  0.20887418  0.61896802    -0.13550
F1362       F  0.97020350  0.16901113  0.63055062    -0.15920
F1363       F  0.81184215  0.10421021  0.67589834    -0.15920
F1364       F  0.85122137  0.05995339  0.68231086    -0.13560
C1365       C  0.70507462  0.09957890  0.50664519     0.24460
C1366       C  0.69659105  0.10174753  0.97852580    -0.23650
C1367       C  0.73023742  0.11897555  0.95919629     0.19360
C1368       C  0.77190448  0.13689749  0.96812016     0.24400
C1369       C  0.78139357  0.13903872  0.99675982    -0.23600
C1370       C  0.74647691  0.11624987  0.51561169     0.19300
F1371       F  0.75113768  0.10719518  0.54249554    -0.13550
F1372       F  0.67297507  0.07968141  0.52554268    -0.15920
F1373       F  0.80336472  0.15473296  0.94869678    -0.15920
F1374       F  0.72311601  0.12029137  0.93159779    -0.13560
C1375       C  0.89599623  0.23758592  0.50331124     0.24460
C1376       C  0.85265275  0.21160647  0.99642524    -0.23650
C1377       C  0.83250706  0.23291635  0.98482723     0.19360
C1378       C  0.85527660  0.27645120  0.97853047     0.24400
C1379       C  0.89817224  0.30071428  0.98434868    -0.23600
C1380       C  0.91841255  0.28120594  0.99687960     0.19300
F1381       F  0.95995988  0.30447714  0.50306124    -0.13550
F1382       F  0.91700588  0.22056530  0.51625346    -0.15920
F1383       F  0.83495485  0.29529167  0.96706464    -0.15920
F1384       F  0.79024884  0.21348008  0.98151302    -0.13560
C1385       C  0.90443456  0.13526388  0.96878597     0.24460
C1386       C  0.88977038  0.09417230  0.97990705    -0.23650
C1387       C  0.85110328  0.07330339  0.99444999     0.19360
C1388       C  0.83032187  0.09480097  0.00071778     0.24400
C1389       C  0.84798639  0.13840856  0.99305996    -0.23600
C1390       C  0.88286375  0.15642632  0.97414909     0.19300
F1391       F  0.89611263  0.19388249  0.96011300    -0.13550
F1392       F  0.93955294  0.15493964  0.95231796    -0.15920
F1393       F  0.79511688  0.07391523  0.01698989    -0.15920
F1394       F  0.83471822  0.03285015  0.00451476    -0.13560
C1395       C  0.81650124  0.18637970  0.58153180     0.24460
C1396       C  0.83683159  0.16899146  0.59742399    -0.23650
C1397       C  0.85223643  0.14696785  0.58277058     0.19360
C1398       C  0.85370990  0.14856994  0.55394205     0.24400
C1399       C  0.83228097  0.16474320  0.53802542    -0.23600
C1400       C  0.81470193  0.18474242  0.55270843     0.19300
F1401       F  0.79437362  0.20198591  0.53913947    -0.13550
F1402       F  0.79933244  0.20658559  0.59386359    -0.15920
F1403       F  0.87826138  0.13564193  0.54242982    -0.15920
F1404       F  0.86431192  0.12151140  0.59556355    -0.13560
C1405       C  0.82862907  0.66338822  0.00576580    -0.01630
C1406       C  0.83929555  0.67312869  0.12957689    -0.01630
C1407       C  0.66107449  0.84682656  0.37868786    -0.01630
C1408       C  0.66228938  0.83842514  0.25434765    -0.01630
N1409       N  0.96644927  0.56385840  0.47475174    -0.05260
N1410       N  0.95762176  0.59436954  0.47507368    -0.57380
N1411       N  0.97639498  0.98957256  0.01096881    -0.04940
N1412       N  0.96868100  0.97398933  0.03689801    -0.59510
N1413       N  0.51157696  0.52667820  0.00954959    -0.04540
N1414       N  0.52842318  0.53686499  0.03440597    -0.57350
N1415       N  0.93151843  0.52665758  0.47627675    -0.04210
N1416       N  0.89830770  0.53104720  0.47787671    -0.59860
C1417       C  0.91492971  0.57343807  0.47698963     0.96920
C1418       C  0.00167269  0.00353001  0.05123514     0.96700
N1419       N  0.94543206  0.89977517  0.44903909    -0.05440
N1420       N  0.93733177  0.86047344  0.45036065    -0.57960
N1421       N  0.89109959  0.94774037  0.43923835    -0.03560
N1422       N  0.85191127  0.93941949  0.43842156    -0.59210
N1423       N  0.90156896  0.93829148  0.41576055    -0.05470
N1424       N  0.86943610  0.92296864  0.39862561    -0.58220
N1425       N  0.93467726  0.90893078  0.47253219    -0.03210
N1426       N  0.91855840  0.87565888  0.49013426    -0.59300
Mn1427     Mn  0.93279051  0.96763988  0.47533559     1.18440
C1428       C  0.92142549  0.84605644  0.47623558     0.99000
C1429       C  0.83874490  0.92418291  0.41297486     0.99660
N1430       N  0.59006389  0.57219596  0.46719789    -0.05490
N1431       N  0.62240684  0.58666153  0.48422275    -0.61800
N1432       N  0.55595397  0.60114471  0.41081247    -0.04300
N1433       N  0.57183576  0.63447664  0.39330253    -0.62480
N1434       N  0.54452724  0.60982464  0.43422108    -0.05000
N1435       N  0.55157765  0.64868406  0.43290446    -0.62070
N1436       N  0.60020094  0.56301663  0.44351334    -0.03900
N1437       N  0.63930118  0.57105966  0.44383167    -0.62760
Mn1438     Mn  0.52867211  0.56888204  0.47193101     1.10660
C1439       C  0.65282037  0.58556963  0.46931825     1.00220
C1440       C  0.56784914  0.66342831  0.40718207     1.00300
N1441       N  0.98053598  0.98382078  0.37322937    -0.05010
N1442       N  0.96550758  0.97360230  0.34788351    -0.60380
N1443       N  0.55903810  0.98364059  0.40770610    -0.04330
N1444       N  0.59215113  0.97915245  0.40665300    -0.57110
N1445       N  0.52410144  0.94645921  0.40935844    -0.05640
N1446       N  0.53269086  0.91580930  0.40970255    -0.59950
N1447       N  0.51553317  0.52109513  0.37230354    -0.04620
N1448       N  0.52489230  0.53671431  0.34642711    -0.57130
Mn1449     Mn  0.96236833  0.94137665  0.41131717     1.20190
Mn1450     Mn  0.55818979  0.54277209  0.40802825     1.10090
Cl1451     Cl  0.99544377  0.50517315  0.44164824    -0.85100
C1452       C  0.99319052  0.50712432  0.33139899     0.97230
C1453       C  0.57527458  0.93676712  0.40817915     0.97030
N1454       N  0.90433667  0.94184598  0.21975231    -0.05260
N1455       N  0.87023443  0.92233788  0.23577976    -0.57380
N1456       N  0.93539184  0.91212783  0.16513158    -0.04940
N1457       N  0.92036715  0.88023745  0.14835873    -0.59510
N1458       N  0.94467421  0.90105226  0.18926831    -0.04540
N1459       N  0.93611000  0.86166945  0.18944906    -0.57350
N1460       N  0.89547595  0.95368510  0.19577031    -0.04210
N1461       N  0.85553778  0.94282515  0.19512389    -0.59860
C1462       C  0.84010401  0.92350440  0.22019904     0.96920
C1463       C  0.92125765  0.84906889  0.16381157     0.96700
N1464       N  0.51623031  0.52833571  0.12200428    -0.05440
N1465       N  0.53174969  0.53712064  0.09632959    -0.57960
N1466       N  0.94128699  0.53522992  0.15662014    -0.03560
N1467       N  0.91055123  0.54368418  0.15718963    -0.59210
N1468       N  0.97816869  0.57056019  0.15557108    -0.05470
N1469       N  0.97335097  0.60363178  0.15522044    -0.58220
N1470       N  0.97962302  0.99266589  0.12305603    -0.03210
N1471       N  0.96972459  0.97645571  0.09828601    -0.59300
Mn1472     Mn  0.93733035  0.97312015  0.15958685     1.18440
C1473       C  0.00265929  0.00415592  0.08184206     0.99000
C1474       C  0.93107680  0.58655137  0.15630002     0.99660
N1475       N  0.52310763  0.94210066  0.22794322    -0.05490
N1476       N  0.52922652  0.90981020  0.22984348    -0.61800
N1477       N  0.51983851  0.51918713  0.25992285    -0.04300
N1478       N  0.52831602  0.53499743  0.28488661    -0.62480
N1479       N  0.98328857  0.98338619  0.26043473    -0.05000
N1480       N  0.96639977  0.97420556  0.28572131    -0.62070
N1481       N  0.55939343  0.97794414  0.22732843    -0.03900
N1482       N  0.59089055  0.97093685  0.22881093    -0.62760
Mn1483     Mn  0.96340419  0.94149954  0.22492037     1.10660
C1484       C  0.57175651  0.92833684  0.23034433     1.00220
C1485       C  0.99450967  0.50691380  0.30072109     1.00300
N1486       N  0.55729992  0.61116655  0.19348871    -0.05010
N1487       N  0.56706649  0.65094593  0.19363308    -0.60380
N1488       N  0.60539127  0.55738668  0.18651198    -0.04330
N1489       N  0.64448402  0.56514841  0.18600336    -0.57110
N1490       N  0.59606991  0.56855905  0.16240076    -0.05640
N1491       N  0.62886457  0.58450443  0.14519442    -0.59950
N1492       N  0.56596841  0.59945511  0.21757327    -0.04620
N1493       N  0.58193968  0.63105292  0.23448893    -0.57130
Mn1494     Mn  0.53749654  0.57033989  0.15769581     1.20190
Mn1495     Mn  0.56327198  0.53895409  0.22336275     1.10090
Cl1496     Cl  0.00039648  0.50598255  0.19137633    -0.85100
C1497       C  0.58222093  0.66296281  0.21937521     0.97230
C1498       C  0.65846213  0.58121030  0.15998168     0.97030
C1499       C  0.62987677  0.78168923  0.21794709     0.24460
C1500       C  0.64045350  0.79146432  0.24609853    -0.23650
C1501       C  0.63389908  0.75762114  0.26479242     0.19360
C1502       C  0.61458334  0.71617631  0.25613432     0.24400
C1503       C  0.60166374  0.70680895  0.22858886    -0.23600
C1504       C  0.60970166  0.74009782  0.20958227     0.19300
F1505       F  0.59861102  0.73277029  0.18257062    -0.13550
F1506       F  0.63719537  0.81231473  0.19839201    -0.15920
F1507       F  0.60913173  0.68522378  0.27494748    -0.15920
F1508       F  0.64746928  0.76382409  0.29134225    -0.13560
C1509       C  0.59495216  0.83946049  0.23752083     0.24460
C1510       C  0.63892670  0.86140891  0.24337757    -0.23650
C1511       C  0.65948891  0.90615610  0.24411478     0.19360
C1512       C  0.63815752  0.92758490  0.23852146     0.24400
C1513       C  0.59475758  0.90537480  0.23345993    -0.23600
C1514       C  0.57354134  0.86120054  0.23267969     0.19300
F1515       F  0.53142949  0.83847440  0.22804874    -0.13550
F1516       F  0.57101952  0.79666029  0.23816966    -0.15920
F1517       F  0.66025034  0.97044044  0.23919688    -0.15920
F1518       F  0.70075442  0.93006726  0.25052595    -0.13560
C1519       C  0.77905129  0.86995659  0.24953140     0.24460
C1520       C  0.79464997  0.90006932  0.22734744    -0.23650
C1521       C  0.76596259  0.90550703  0.21093803     0.19360
C1522       C  0.72313436  0.88417435  0.21809812     0.24400
C1523       C  0.70790301  0.85763107  0.24253635    -0.23600
C1524       C  0.73621261  0.84780764  0.25627104     0.19300
F1525       F  0.72346298  0.81954326  0.27818692    -0.13550
F1526       F  0.80519412  0.86189760  0.26507085    -0.15920
F1527       F  0.69719346  0.89004955  0.20085599    -0.15920
F1528       F  0.77923887  0.93195903  0.18797563    -0.13560
C1529       C  0.59041309  0.77379395  0.39030322     0.24460
C1530       C  0.63561691  0.79862589  0.38997679    -0.23650
C1531       C  0.65570543  0.77633882  0.40024788     0.19360
C1532       C  0.63392219  0.73226591  0.40301032     0.24400
C1533       C  0.59046549  0.70872486  0.39956773    -0.23600
C1534       C  0.56861710  0.72981086  0.39476256     0.19300
F1535       F  0.52578009  0.70782987  0.39512011    -0.13550
F1536       F  0.56604811  0.79149594  0.38866127    -0.15920
F1537       F  0.65504088  0.71264378  0.41150575    -0.15920
F1538       F  0.69484011  0.79573994  0.41103263    -0.13560
C1539       C  0.59465157  0.88204508  0.42008335     0.24460
C1540       C  0.59972892  0.91637493  0.40334580    -0.23650
C1541       C  0.62859395  0.93159374  0.38129704     0.19360
C1542       C  0.64920656  0.91061533  0.37422018     0.24400
C1543       C  0.64106910  0.87263474  0.38873735    -0.23600
C1544       C  0.61683206  0.86184596  0.41376934     0.19300
F1545       F  0.61498493  0.83229360  0.43244904    -0.13550
F1546       F  0.56914816  0.86882067  0.44295044    -0.15920
F1547       F  0.67756350  0.92892397  0.35318442    -0.15920
F1548       F  0.63591888  0.96634482  0.36568178    -0.13560
C1549       C  0.73618356  0.85736616  0.37579808     0.24460
C1550       C  0.70814778  0.86798834  0.38841438    -0.23650
C1551       C  0.72516631  0.89749569  0.40982062     0.19360
C1552       C  0.76749375  0.91602789  0.41720675     0.24400
C1553       C  0.79471469  0.90625500  0.40372261    -0.23600
C1554       C  0.77865687  0.87693330  0.38282711     0.19300
F1555       F  0.80359444  0.86567736  0.36976483    -0.13550
F1556       F  0.72199522  0.82681616  0.35688615    -0.15920
F1557       F  0.78172681  0.94368790  0.43795321    -0.15920
F1558       F  0.70141081  0.90793751  0.42492613    -0.13560
C1559       C  0.69654473  0.87717466  0.32915300     0.24460
C1560       C  0.66034493  0.84837181  0.34571485    -0.23650
C1561       C  0.62318689  0.82393668  0.33034439     0.19360
C1562       C  0.62436372  0.82072832  0.30174468     0.24400
C1563       C  0.66229484  0.84353246  0.28626428    -0.23600
C1564       C  0.69739919  0.87490867  0.30047935     0.19300
F1565       F  0.73285085  0.90536177  0.28706469    -0.13550
F1566       F  0.73106859  0.91055126  0.34001779    -0.15920
F1567       F  0.58759890  0.79385583  0.28939204    -0.15920
F1568       F  0.58433640  0.80480820  0.34165249    -0.13560
C1569       C  0.72809309  0.64718138  0.15635140     0.24460
C1570       C  0.70345944  0.60396250  0.15206029    -0.23650
C1571       C  0.72200086  0.58330839  0.14031091     0.19360
C1572       C  0.76511221  0.60559383  0.13335775     0.24400
C1573       C  0.79161311  0.64916813  0.13902868    -0.23600
C1574       C  0.77109254  0.66977230  0.14956069     0.19300
F1575       F  0.79064999  0.71229856  0.15125692    -0.13550
F1576       F  0.71005707  0.66804881  0.16661761    -0.15920
F1577       F  0.78106838  0.58423505  0.12106953    -0.15920
F1578       F  0.69822002  0.54154790  0.13524285    -0.13560
C1579       C  0.90377025  0.79712935  0.12706359     0.24460
C1580       C  0.90358947  0.80522623  0.15509806    -0.23650
C1581       C  0.88640081  0.77108485  0.17476454     0.19360
C1582       C  0.86724310  0.72945881  0.16631078     0.24400
C1583       C  0.86378837  0.72043022  0.13779280    -0.23600
C1584       C  0.88565888  0.75569689  0.11852431     0.19300
F1585       F  0.89275350  0.75135313  0.09167833    -0.13550
F1586       F  0.92310648  0.82961713  0.10781684    -0.15920
F1587       F  0.84981000  0.69757848  0.18608991    -0.15920
F1588       F  0.88642756  0.77772181  0.20224630    -0.13560
C1589       C  0.93036957  0.65175238  0.14086936     0.24600
C1590       C  0.91021263  0.61184746  0.15472130    -0.23650
C1591       C  0.86989495  0.59634930  0.16630076     0.19360
C1592       C  0.84847308  0.61833315  0.16167375     0.24400
C1593       C  0.86530457  0.65426511  0.14294135    -0.23600
C1594       C  0.90851288  0.67278370  0.13517561     0.19300
F1595       F  0.92837998  0.70887418  0.11896802    -0.13550
F1596       F  0.97020350  0.66901112  0.13055062    -0.15920
F1597       F  0.81184215  0.60421020  0.17589834    -0.15920
F1598       F  0.85122137  0.55995339  0.18231086    -0.13560
C1599       C  0.70507462  0.59957890  0.00664518     0.24460
C1600       C  0.69659105  0.60174753  0.47852579    -0.23650
C1601       C  0.73023742  0.61897556  0.45919629     0.19360
C1602       C  0.77190448  0.63689750  0.46812015     0.24400
C1603       C  0.78139357  0.63903872  0.49675981    -0.23600
C1604       C  0.74647691  0.61624987  0.01561169     0.19300
F1605       F  0.75113768  0.60719518  0.04249553    -0.13550
F1606       F  0.67297506  0.57968141  0.02554268    -0.15920
F1607       F  0.80336472  0.65473296  0.44869678    -0.15920
F1608       F  0.72311602  0.62029137  0.43159779    -0.13560
C1609       C  0.89599623  0.73758591  0.00331124     0.24460
C1610       C  0.85265275  0.71160647  0.49642524    -0.23650
C1611       C  0.83250706  0.73291636  0.48482723     0.19360
C1612       C  0.85527660  0.77645121  0.47853047     0.24400
C1613       C  0.89817225  0.80071429  0.48434868    -0.23600
C1614       C  0.91841256  0.78120595  0.49687960     0.19300
F1615       F  0.95995988  0.80447713  0.00306124    -0.13550
F1616       F  0.91700588  0.72056529  0.01625346    -0.15920
F1617       F  0.83495485  0.79529168  0.46706464    -0.15920
F1618       F  0.79024884  0.71348009  0.48151301    -0.13560
C1619       C  0.90443456  0.63526389  0.46878597     0.24460
C1620       C  0.88977038  0.59417231  0.47990705    -0.23650
C1621       C  0.85110328  0.57330340  0.49444998     0.19360
C1622       C  0.83032187  0.59480097  0.50071777     0.24400
C1623       C  0.84798639  0.63840857  0.49305996    -0.23600
C1624       C  0.88286376  0.65642633  0.47414909     0.19300
F1625       F  0.89611264  0.69388250  0.46011300    -0.13550
F1626       F  0.93955294  0.65493965  0.45231797    -0.15920
F1627       F  0.79511688  0.57391523  0.51698988    -0.15920
F1628       F  0.83471822  0.53285016  0.50451475    -0.13560
C1629       C  0.81650124  0.68637970  0.08153180     0.24460
C1630       C  0.83683159  0.66899146  0.09742399    -0.23650
C1631       C  0.85223643  0.64696785  0.08277058     0.19360
C1632       C  0.85370990  0.64856994  0.05394204     0.24400
C1633       C  0.83228097  0.66474320  0.03802542    -0.23600
C1634       C  0.81470193  0.68474241  0.05270843     0.19300
F1635       F  0.79437362  0.70198591  0.03913947    -0.13550
F1636       F  0.79933244  0.70658558  0.09386360    -0.15920
F1637       F  0.87826137  0.63564193  0.04242982    -0.15920
F1638       F  0.86431192  0.62151140  0.09556355    -0.13560
C1639       C  0.82862907  0.66338823  0.50576580    -0.01630
C1640       C  0.83929555  0.67312870  0.62957689    -0.01630
C1641       C  0.66107449  0.84682655  0.87868787    -0.01630
C1642       C  0.66228938  0.83842515  0.75434765    -0.01630
N1643       N  0.96644927  0.56385839  0.97475174    -0.05260
N1644       N  0.95762175  0.59436954  0.97507368    -0.57380
N1645       N  0.97639498  0.98957257  0.51096881    -0.04940
N1646       N  0.96868100  0.97398934  0.53689800    -0.59510
N1647       N  0.51157696  0.52667821  0.50954959    -0.04540
N1648       N  0.52842318  0.53686500  0.53440597    -0.57350
N1649       N  0.93151843  0.52665757  0.97627676    -0.04210
N1650       N  0.89830769  0.53104719  0.97787671    -0.59860
C1651       C  0.91492971  0.57343806  0.97698963     0.96920
C1652       C  0.00167269  0.00353002  0.55123514     0.96700
N1653       N  0.94543206  0.89977516  0.94903909    -0.05440
N1654       N  0.93733177  0.86047344  0.95036065    -0.57960
N1655       N  0.89109959  0.94774036  0.93923835    -0.03560
N1656       N  0.85191126  0.93941948  0.93842157    -0.59210
N1657       N  0.90156896  0.93829147  0.91576055    -0.05470
N1658       N  0.86943610  0.92296863  0.89862561    -0.58220
N1659       N  0.93467726  0.90893077  0.97253219    -0.03210
N1660       N  0.91855840  0.87565887  0.99013426    -0.59300
Mn1661     Mn  0.93279051  0.96763987  0.97533559     1.18440
C1662       C  0.92142549  0.84605643  0.97623558     0.99000
C1663       C  0.83874490  0.92418290  0.91297486     0.99660
N1664       N  0.59006389  0.57219595  0.96719789    -0.05490
N1665       N  0.62240684  0.58666152  0.98422276    -0.61800
N1666       N  0.55595397  0.60114471  0.91081247    -0.04300
N1667       N  0.57183575  0.63447663  0.89330253    -0.62480
N1668       N  0.54452723  0.60982463  0.93422108    -0.05000
N1669       N  0.55157764  0.64868405  0.93290446    -0.62070
N1670       N  0.60020093  0.56301663  0.94351334    -0.03900
N1671       N  0.63930118  0.57105965  0.94383167    -0.62760
Mn1672     Mn  0.52867210  0.56888203  0.97193101     1.10660
C1673       C  0.65282037  0.58556962  0.96931826     1.00220
C1674       C  0.56784913  0.66342830  0.90718208     1.00300
N1675       N  0.98053598  0.98382078  0.87322937    -0.05010
N1676       N  0.96550758  0.97360230  0.84788351    -0.60380
N1677       N  0.55903810  0.98364058  0.90770610    -0.04330
N1678       N  0.59215113  0.97915245  0.90665301    -0.57110
N1679       N  0.52410144  0.94645921  0.90935844    -0.05640
N1680       N  0.53269085  0.91580929  0.90970256    -0.59950
N1681       N  0.51553317  0.52109512  0.87230354    -0.04620
N1682       N  0.52489230  0.53671430  0.84642711    -0.57130
Mn1683     Mn  0.96236833  0.94137664  0.91131717     1.20190
Mn1684     Mn  0.55818979  0.54277208  0.90802825     1.10090
Cl1685     Cl  0.99544377  0.50517315  0.94164824    -0.85100
C1686       C  0.99319051  0.50712432  0.83139900     0.97230
C1687       C  0.57527458  0.93676711  0.90817916     0.97030
N1688       N  0.90433667  0.94184599  0.71975231    -0.05260
N1689       N  0.87023444  0.92233789  0.73577976    -0.57380
N1690       N  0.93539184  0.91212783  0.66513157    -0.04940
N1691       N  0.92036715  0.88023745  0.64835873    -0.59510
N1692       N  0.94467421  0.90105226  0.68926831    -0.04540
N1693       N  0.93611000  0.86166945  0.68944906    -0.57350
N1694       N  0.89547595  0.95368510  0.69577031    -0.04210
N1695       N  0.85553778  0.94282515  0.69512389    -0.59860
C1696       C  0.84010401  0.92350440  0.72019904     0.96920
C1697       C  0.92125765  0.84906889  0.66381157     0.96700
N1698       N  0.51623031  0.52833571  0.62200428    -0.05440
N1699       N  0.53174969  0.53712065  0.59632959    -0.57960
N1700       N  0.94128698  0.53522992  0.65662014    -0.03560
N1701       N  0.91055122  0.54368418  0.65718963    -0.59210
N1702       N  0.97816869  0.57056019  0.65557108    -0.05470
N1703       N  0.97335097  0.60363178  0.65522044    -0.58220
N1704       N  0.97962302  0.99266590  0.62305603    -0.03210
N1705       N  0.96972459  0.97645572  0.59828601    -0.59300
Mn1706     Mn  0.93733034  0.97312016  0.65958685     1.18440
C1707       C  0.00265929  0.00415593  0.58184205     0.99000
C1708       C  0.93107679  0.58655137  0.65630003     0.99660
N1709       N  0.52310763  0.94210066  0.72794322    -0.05490
N1710       N  0.52922652  0.90981021  0.72984348    -0.61800
N1711       N  0.51983851  0.51918713  0.75992285    -0.04300
N1712       N  0.52831601  0.53499743  0.78488661    -0.62480
N1713       N  0.98328857  0.98338619  0.76043473    -0.05000
N1714       N  0.96639977  0.97420557  0.78572131    -0.62070
N1715       N  0.55939343  0.97794414  0.72732843    -0.03900
N1716       N  0.59089055  0.97093686  0.72881093    -0.62760
Mn1717     Mn  0.96340419  0.94149954  0.72492037     1.10660
C1718       C  0.57175651  0.92833685  0.73034433     1.00220
C1719       C  0.99450966  0.50691380  0.80072109     1.00300
N1720       N  0.55729992  0.61116655  0.69348871    -0.05010
N1721       N  0.56706649  0.65094594  0.69363308    -0.60380
N1722       N  0.60539127  0.55738668  0.68651198    -0.04330
N1723       N  0.64448402  0.56514842  0.68600336    -0.57110
N1724       N  0.59606991  0.56855906  0.66240076    -0.05640
N1725       N  0.62886457  0.58450444  0.64519442    -0.59950
N1726       N  0.56596841  0.59945511  0.71757327    -0.04620
N1727       N  0.58193969  0.63105292  0.73448893    -0.57130
Mn1728     Mn  0.53749654  0.57033990  0.65769581     1.20190
Mn1729     Mn  0.56327198  0.53895409  0.72336275     1.10090
Cl1730     Cl  0.00039647  0.50598256  0.69137633    -0.85100
C1731       C  0.58222094  0.66296281  0.71937522     0.97230
C1732       C  0.65846213  0.58121030  0.65998168     0.97030
C1733       C  0.62987675  0.78168924  0.71794709     0.24460
C1734       C  0.64045350  0.79146432  0.74609853    -0.23650
C1735       C  0.63389910  0.75762116  0.76479242     0.19360
C1736       C  0.61458337  0.71617632  0.75613431     0.24400
C1737       C  0.60166374  0.70680896  0.72858886    -0.23600
C1738       C  0.60970164  0.74009782  0.70958227     0.19300
F1739       F  0.59861098  0.73277029  0.68257062    -0.13550
F1740       F  0.63719534  0.81231473  0.69839202    -0.15920
F1741       F  0.60913178  0.68522379  0.77494747    -0.15920
F1742       F  0.64746931  0.76382410  0.79134224    -0.13560
C1743       C  0.59495216  0.83946050  0.73752084     0.24460
C1744       C  0.63892670  0.86140892  0.74337757    -0.23650
C1745       C  0.65948892  0.90615611  0.74411477     0.19360
C1746       C  0.63815752  0.92758491  0.73852144     0.24400
C1747       C  0.59475758  0.90537481  0.73345993    -0.23600
C1748       C  0.57354134  0.86120054  0.73267971     0.19300
F1749       F  0.53142949  0.83847441  0.72804876    -0.13550
F1750       F  0.57101952  0.79666030  0.73816969    -0.15920
F1751       F  0.66025035  0.97044045  0.73919685    -0.15920
F1752       F  0.70075443  0.93006727  0.75052592    -0.13560
C1753       C  0.77905130  0.86995662  0.74953142     0.24460
C1754       C  0.79464997  0.90006933  0.72734745    -0.23650
C1755       C  0.76596258  0.90550702  0.71093803     0.19360
C1756       C  0.72313436  0.88417434  0.71809812     0.24400
C1757       C  0.70790302  0.85763108  0.74253636    -0.23600
C1758       C  0.73621262  0.84780766  0.75627106     0.19300
F1759       F  0.72346300  0.81954330  0.77818695    -0.13550
F1760       F  0.80519414  0.86189765  0.76507087    -0.15920
F1761       F  0.69719345  0.89004952  0.70085599    -0.15920
F1762       F  0.77923886  0.93195899  0.68797562    -0.13560
C1763       C  0.59041309  0.77379394  0.89030323     0.24460
C1764       C  0.63561691  0.79862588  0.88997679    -0.23650
C1765       C  0.65570543  0.77633881  0.90024787     0.19360
C1766       C  0.63392219  0.73226590  0.90301031     0.24400
C1767       C  0.59046548  0.70872485  0.89956773    -0.23600
C1768       C  0.56861710  0.72981085  0.89476257     0.19300
F1769       F  0.52578008  0.70782987  0.89512013    -0.13550
F1770       F  0.56604811  0.79149593  0.88866127    -0.15920
F1771       F  0.65504088  0.71264376  0.91150573    -0.15920
F1772       F  0.69484012  0.79573992  0.91103260    -0.13560
C1773       C  0.59465156  0.88204506  0.92008336     0.24460
C1774       C  0.59972892  0.91637493  0.90334581    -0.23650
C1775       C  0.62859396  0.93159375  0.88129706     0.19360
C1776       C  0.64920657  0.91061534  0.87422020     0.24400
C1777       C  0.64106910  0.87263473  0.88873736    -0.23600
C1778       C  0.61683204  0.86184595  0.91376934     0.19300
F1779       F  0.61498492  0.83229359  0.93244904    -0.13550
F1780       F  0.56914813  0.86882065  0.94295044    -0.15920
F1781       F  0.67756353  0.92892399  0.85318445    -0.15920
F1782       F  0.63591891  0.96634484  0.86568180    -0.13560
C1783       C  0.73618356  0.85736617  0.87579807     0.24460
C1784       C  0.70814777  0.86798833  0.88841439    -0.23650
C1785       C  0.72516630  0.89749566  0.90982063     0.19360
C1786       C  0.76749374  0.91602785  0.91720676     0.24400
C1787       C  0.79471468  0.90625499  0.90372261    -0.23600
C1788       C  0.77865687  0.87693331  0.88282710     0.19300
F1789       F  0.80359444  0.86567738  0.86976482    -0.13550
F1790       F  0.72199523  0.82681617  0.85688614    -0.15920
F1791       F  0.78172679  0.94368785  0.93795324    -0.15920
F1792       F  0.70141079  0.90793745  0.92492616    -0.13560
C1793       C  0.69654472  0.87717467  0.82915300     0.24460
C1794       C  0.66034492  0.84837181  0.84571485    -0.23650
C1795       C  0.62318688  0.82393666  0.83034440     0.19360
C1796       C  0.62436372  0.82072831  0.80174468     0.24400
C1797       C  0.66229484  0.84353246  0.78626428    -0.23600
C1798       C  0.69739918  0.87490868  0.80047935     0.19300
F1799       F  0.73285083  0.90536180  0.78706469    -0.13550
F1800       F  0.73106857  0.91055126  0.84001779    -0.15920
F1801       F  0.58759890  0.79385580  0.78939205    -0.15920
F1802       F  0.58433639  0.80480815  0.84165250    -0.13560
C1803       C  0.72809308  0.64718138  0.65635140     0.24460
C1804       C  0.70345944  0.60396251  0.65206028    -0.23650
C1805       C  0.72200085  0.58330840  0.64031091     0.19360
C1806       C  0.76511221  0.60559384  0.63335775     0.24400
C1807       C  0.79161311  0.64916813  0.63902868    -0.23600
C1808       C  0.77109254  0.66977230  0.64956069     0.19300
F1809       F  0.79064999  0.71229857  0.65125692    -0.13550
F1810       F  0.71005707  0.66804881  0.66661761    -0.15920
F1811       F  0.78106838  0.58423505  0.62106953    -0.15920
F1812       F  0.69822002  0.54154791  0.63524285    -0.13560
C1813       C  0.90377025  0.79712935  0.62706359     0.24460
C1814       C  0.90358947  0.80522623  0.65509806    -0.23650
C1815       C  0.88640081  0.77108485  0.67476454     0.19360
C1816       C  0.86724309  0.72945881  0.66631078     0.24400
C1817       C  0.86378836  0.72043022  0.63779280    -0.23600
C1818       C  0.88565888  0.75569689  0.61852431     0.19300
F1819       F  0.89275350  0.75135314  0.59167833    -0.13550
F1820       F  0.92310648  0.82961713  0.60781684    -0.15920
F1821       F  0.84981000  0.69757848  0.68608991    -0.15920
F1822       F  0.88642756  0.77772182  0.70224630    -0.13560
C1823       C  0.93036956  0.65175239  0.64086936     0.24600
C1824       C  0.91021263  0.61184747  0.65472130    -0.23650
C1825       C  0.86989495  0.59634930  0.66630076     0.19360
C1826       C  0.84847307  0.61833315  0.66167375     0.24400
C1827       C  0.86530457  0.65426511  0.64294135    -0.23600
C1828       C  0.90851288  0.67278370  0.63517561     0.19300
F1829       F  0.92837997  0.70887418  0.61896802    -0.13550
F1830       F  0.97020350  0.66901112  0.63055062    -0.15920
F1831       F  0.81184215  0.60421021  0.67589834    -0.15920
F1832       F  0.85122137  0.55995340  0.68231086    -0.13560
C1833       C  0.70507462  0.59957891  0.50664518     0.24460
C1834       C  0.69659105  0.60174753  0.97852580    -0.23650
C1835       C  0.73023742  0.61897555  0.95919629     0.19360
C1836       C  0.77190448  0.63689749  0.96812016     0.24400
C1837       C  0.78139357  0.63903872  0.99675982    -0.23600
C1838       C  0.74647691  0.61624988  0.51561169     0.19300
F1839       F  0.75113768  0.60719518  0.54249553    -0.13550
F1840       F  0.67297507  0.57968141  0.52554268    -0.15920
F1841       F  0.80336472  0.65473296  0.94869678    -0.15920
F1842       F  0.72311601  0.62029137  0.93159779    -0.13560
C1843       C  0.89599623  0.73758592  0.50331124     0.24460
C1844       C  0.85265275  0.71160647  0.99642524    -0.23650
C1845       C  0.83250706  0.73291635  0.98482723     0.19360
C1846       C  0.85527660  0.77645121  0.97853047     0.24400
C1847       C  0.89817225  0.80071428  0.98434868    -0.23600
C1848       C  0.91841256  0.78120594  0.99687960     0.19300
F1849       F  0.95995988  0.80447714  0.50306124    -0.13550
F1850       F  0.91700588  0.72056530  0.51625346    -0.15920
F1851       F  0.83495485  0.79529167  0.96706464    -0.15920
F1852       F  0.79024884  0.71348008  0.98151302    -0.13560
C1853       C  0.90443456  0.63526388  0.96878597     0.24460
C1854       C  0.88977038  0.59417230  0.97990705    -0.23650
C1855       C  0.85110328  0.57330339  0.99444999     0.19360
C1856       C  0.83032187  0.59480097  0.00071777     0.24400
C1857       C  0.84798639  0.63840856  0.99305996    -0.23600
C1858       C  0.88286375  0.65642632  0.97414909     0.19300
F1859       F  0.89611263  0.69388249  0.96011300    -0.13550
F1860       F  0.93955294  0.65493964  0.95231797    -0.15920
F1861       F  0.79511688  0.57391523  0.01698989    -0.15920
F1862       F  0.83471822  0.53285015  0.00451476    -0.13560
C1863       C  0.81650123  0.68637970  0.58153180     0.24460
C1864       C  0.83683159  0.66899146  0.59742399    -0.23650
C1865       C  0.85223643  0.64696785  0.58277058     0.19360
C1866       C  0.85370990  0.64856994  0.55394204     0.24400
C1867       C  0.83228097  0.66474320  0.53802542    -0.23600
C1868       C  0.81470193  0.68474242  0.55270843     0.19300
F1869       F  0.79437362  0.70198591  0.53913947    -0.13550
F1870       F  0.79933243  0.70658559  0.59386359    -0.15920
F1871       F  0.87826137  0.63564193  0.54242982    -0.15920
F1872       F  0.86431191  0.62151140  0.59556355    -0.13560
loop_ 
_geom_bond_atom_site_label_1 
_geom_bond_atom_site_label_2 
_geom_bond_distance 
_geom_bond_site_symmetry_2 
_ccdc_geom_bond_type 
C1          C229   1.561       .  S
C1          C433   1.566   1_554  S
C1          C440   1.572   1_554  S
C1          C453   1.571   1_554  S
C2          C169   1.573       .  S
C2          C179   1.566       .  S
C2          C189   1.568       .  S
C2          C226   1.562       .  S
C3          C126   1.597       .  S
C3          C139   1.567       .  S
C3          C146   1.574       .  S
C3          C156   1.589       .  S
C4           C96   1.558       .  S
C4          C106   1.564       .  S
C4          C119   1.557       .  S
C4          C159   1.558       .  S
N5            N6   1.323       .  A
N5           N11   1.315       .  A
N5         Mn970   2.215       .  S
N6           C13   1.356       .  A
N7            N8   1.323       .  A
N7         N1413   1.317       .  A
N7         Mn257   2.221   1_554  S
N8           C14   1.355       .  A
N9           N10   1.323       .  A
N9         N1411   1.317   1_445  A
N9         Mn268   2.209   1_554  S
N10        C1418   1.352       .  A
N11          N12   1.321       .  A
N11        Mn491   2.203   1_545  S
N12          C13   1.353       .  A
C13         C216   1.486       .  S
C14        N1414   1.352       .  A
C14          C69   1.477       .  S
N15          N21   1.317       .  A
N15          N16   1.320       .  A
N15         Mn45   2.202       .  S
N16          C24   1.349       .  A
N17          N18   1.318       .  A
N17          N19   1.317       .  A
N17         Mn23   2.200       .  S
N18          C25   1.351       .  A
N19          N20   1.321       .  A
N19         Mn45   2.202       .  S
N20          C25   1.355       .  A
N21          N22   1.323       .  A
N21         Mn23   2.211       .  S
N22          C24   1.355       .  A
Mn23        N241   2.221       .  S
Mn23        N479   2.203       .  S
Mn23       Cl515   2.550       .  S
C24         C209   1.470       .  S
C25         C149   1.480       .  S
N26          N27   1.323       .  A
N26          N32   1.316       .  A
N26         Mn34   2.221       .  S
N27          C35   1.358       .  A
N28          N30   1.317       .  A
N28          N29   1.322       .  A
N28         Mn46   2.206       .  S
N29          C36   1.354       .  A
N30          N31   1.317       .  A
N30         Mn34   2.192       .  S
N31          C36   1.347       .  A
N32          N33   1.317       .  A
N32         Mn46   2.183       .  S
N33          C35   1.348       .  A
Mn34        N941   2.215   1_455  S
Mn34        N243   2.209       .  S
Mn34       Cl983   2.542   1_455  S
C35         C196   1.479       .  S
C36         C129   1.464       .  S
N37          N38   1.325       .  A
N37        N1447   1.317       .  A
N37         Mn45   2.229       .  S
N38         C516   1.356       .  A
N39          N40   1.318       .  A
N39          N41   1.315       .  A
N39        Mn514   2.197       .  S
N40          C49   1.352       .  A
N41          N42   1.321       .  A
N41        Mn981   2.193   1_455  S
N42          C49   1.352       .  A
N43          N44   1.323       .  A
N43        N1441   1.317   1_445  A
N43         Mn46   2.206       .  S
N44         C984   1.352   1_455  A
Mn45        N977   2.193       .  S
Mn45       Cl515   2.545       .  S
Mn46        N507   2.197   1_545  S
Mn46       Cl983   2.550   1_455  S
Cl47       Mn491   2.550   1_545  S
Cl47       Mn970   2.542       .  S
Cl47       Mn513   2.545   1_545  S
Cl47       Mn982   2.550       .  S
C48         N506   1.356   1_545  A
C48         N980   1.352       .  A
C48          C81   1.481       .  S
C49         C136   1.467       .  S
N50          N51   1.320       .  A
N50          N56   1.316       .  A
N50         Mn79   2.201       .  S
N51          C58   1.355       .  A
N52          N54   1.317       .  A
N52          N53   1.322       .  A
N52         Mn68   2.218       .  S
N53          C59   1.357       .  A
N54          N55   1.318       .  A
N54         Mn79   2.190       .  S
N55          C59   1.349       .  A
N56          N57   1.316       .  A
N56         Mn68   2.180       .  S
N57          C58   1.348       .  A
C58         C116   1.477       .  S
C59         C176   1.479       .  S
N60          N61   1.325       .  A
N60        N1470   1.316   1_445  A
N60         Mn90   2.221       .  S
N61        C1473   1.356       .  A
N62          N63   1.324       .  A
N62          N64   1.315       .  A
N62        Mn536   2.217   1_545  S
N63          C70   1.356       .  A
N64          N65   1.319       .  A
N64       Mn1026   2.198       .  S
N65          C70   1.352       .  A
N66          N67   1.322       .  A
N66        N1464   1.316       .  A
N66         Mn68   2.202       .  S
N67          C69   1.351       .  A
Mn68        N530   2.217       .  S
Mn68       Cl560   2.538       .  S
C69        N1465   1.356       .  A
C70         C186   1.483       .  S
N71          N72   1.320       .  A
N71          N77   1.313       .  A
N71       Mn1015   2.198   1_455  S
N72          C80   1.355       .  A
N73          N74   1.324       .  A
N73        N1479   1.317   1_445  A
N73         Mn91   2.226       .  S
N74        C1017   1.356   1_455  A
N75          N76   1.324       .  A
N75        N1477   1.317       .  A
N75         Mn79   2.213       .  S
N76         C549   1.354       .  A
N77          N78   1.316       .  A
N77        Mn559   2.180       .  S
N78          C80   1.351       .  A
Mn79       N1007   2.198       .  S
Mn79       Cl560   2.552       .  S
C80         C109   1.479       .  S
C81        N1010   1.356       .  A
C81         N544   1.354   1_545  A
N82          N83   1.319       .  A
N82          N88   1.315       .  A
N82         Mn90   2.202       .  S
N83          C93   1.353       .  A
N84          N85   1.321       .  A
N84          N86   1.318       .  A
N84         Mn91   2.214       .  S
N85          C94   1.351       .  A
N86          N87   1.322       .  A
N86         Mn90   2.208       .  S
N87          C94   1.354       .  A
N88          N89   1.318       .  A
N88         Mn91   2.187       .  S
N89          C93   1.352       .  A
Mn90       N1000   2.198   1_455  S
Mn90      Cl1028   2.553       .  S
Mn91        N545   2.180   1_545  S
Mn91      Cl1028   2.539       .  S
Cl92       Mn536   2.538   1_545  S
Cl92       Mn547   2.552   1_545  S
Cl92      Mn1026   2.553       .  S
Cl92      Mn1027   2.539       .  S
C93          C99   1.480       .  S
C94         C166   1.472       .  S
C95          C96   1.419       .  A
C95         C100   1.395       .  A
C95         F102   1.355       .  S
C96          C97   1.423       .  A
C97          C98   1.396       .  A
C97         F104   1.356       .  S
C98          C99   1.403       .  A
C98         F103   1.358       .  S
C99         C100   1.403       .  A
C100        F101   1.358       .  S
C105        C106   1.427       .  A
C105        C110   1.398       .  A
C105        F112   1.356       .  S
C106        C107   1.421       .  A
C107        C108   1.391       .  A
C107        F114   1.354       .  S
C108        C109   1.401       .  A
C108        F113   1.358       .  S
C109        C110   1.401       .  A
C110        F111   1.358       .  S
C115        C116   1.401       .  A
C115        C120   1.392       .  A
C115        F122   1.358       .  S
C116        C117   1.406       .  A
C117        C118   1.397       .  A
C117        F124   1.358       .  S
C118        C119   1.418       .  A
C118        F123   1.356       .  S
C119        C120   1.421       .  A
C120        F121   1.355       .  S
C125        C126   1.435       .  A
C125        C130   1.399       .  A
C125        F132   1.356       .  S
C126        C127   1.434       .  A
C127        C128   1.396       .  A
C127        F134   1.352       .  S
C128        C129   1.391       .  A
C128        F133   1.359       .  S
C129        C130   1.391       .  A
C130        F131   1.358       .  S
C135        C136   1.400       .  A
C135        C140   1.403       .  A
C135        F142   1.358       .  S
C136        C137   1.392       .  A
C137        C138   1.388       .  A
C137        F144   1.359       .  S
C138        C139   1.424       .  A
C138        F143   1.348       .  S
C139        C140   1.425       .  A
C140        F141   1.358       .  S
C145        C146   1.430       .  A
C145        C150   1.395       .  A
C145        F152   1.360       .  S
C146        C147   1.424       .  A
C147        C148   1.398       .  A
C147        F154   1.354       .  S
C148        C149   1.403       .  A
C148        F153   1.358       .  S
C149        C150   1.400       .  A
C150        F151   1.358       .  S
C155        C156   1.430       .  A
C155        C160   1.390       .  A
C155        F162   1.359       .  S
C156        C157   1.419       .  A
C157        C158   1.392       .  A
C157        F164   1.341       .  S
C158        C159   1.409       .  A
C158        F163   1.355       .  S
C159        C160   1.415       .  A
C160        F161   1.356       .  S
C165        C166   1.395       .  A
C165        C170   1.398       .  A
C165        F172   1.359       .  S
C166        C167   1.397       .  A
C167        C168   1.403       .  A
C167        F174   1.358       .  S
C168        C169   1.426       .  A
C168        F173   1.357       .  S
C169        C170   1.429       .  A
C170        F171   1.355       .  S
C175        C176   1.398       .  A
C175        C180   1.397       .  A
C175        F182   1.358       .  S
C176        C177   1.405       .  A
C177        C178   1.399       .  A
C177        F184   1.358       .  S
C178        C179   1.418       .  A
C178        F183   1.358       .  S
C179        C180   1.428       .  A
C180        F181   1.355       .  S
C185        C186   1.402       .  A
C185        C190   1.396       .  A
C185        F192   1.358       .  S
C186        C187   1.404       .  A
C187        C188   1.405       .  A
C187        F194   1.358       .  S
C188        C189   1.421       .  A
C188        F193   1.355       .  S
C189        C190   1.423       .  A
C190        F191   1.356       .  S
C195        C200   1.396       .  A
C195        C430   1.397   1_554  A
C195        F202   1.358       .  S
C196        C197   1.406       .  A
C196        C429   1.397       .  A
C197        C198   1.400       .  A
C197        F204   1.358       .  S
C198        C199   1.417       .  A
C198        F203   1.358       .  S
C199        C235   1.566       .  S
C199        C434   1.428       .  A
C200        C433   1.428   1_554  A
C200        F201   1.356       .  S
C205        C440   1.427   1_554  A
C205        C444   1.401   1_554  A
C205        F212   1.357       .  S
C206        C235   1.572       .  S
C206        C207   1.428       .  A
C206        C439   1.427       .  A
C207        C208   1.398       .  A
C207        F214   1.354       .  S
C208        C209   1.396       .  A
C208        F213   1.359       .  S
C209        C210   1.396       .  A
C210        C439   1.401       .  A
C210        F445   1.358       .  S
F211        C444   1.358   1_554  S
C215        C216   1.403       .  A
C215        C220   1.404       .  A
C215        F222   1.358       .  S
C216        C217   1.403       .  A
C217        C218   1.400       .  A
C217        F224   1.358       .  S
C218        C219   1.423       .  A
C218        F223   1.356       .  S
C219        C235   1.571       .  S
C219        C220   1.423       .  A
C220        F221   1.355       .  S
C225        C226   1.415       .  A
C225        C230   1.393       .  A
C225        F232   1.357       .  S
C226        C227   1.419       .  A
C227        C228   1.389       .  A
C227        F234   1.355       .  S
C228        C229   1.416       .  A
C228        F233   1.354       .  S
C229        C230   1.419       .  A
C230        F231   1.357       .  S
C235        C463   1.561       .  S
C236        C403   1.573       .  S
C236        C413   1.566       .  S
C236        C423   1.568       .  S
C236        C460   1.562       .  S
C237        C360   1.597       .  S
C237        C373   1.567       .  S
C237        C380   1.574       .  S
C237        C390   1.589       .  S
C238        C330   1.558       .  S
C238        C340   1.564       .  S
C238        C353   1.557       .  S
C238        C393   1.558       .  S
N239        N240   1.323       .  A
N239        N245   1.315       .  A
N239      Mn1204   2.215       .  S
N240        C247   1.356       .  A
N241       N1647   1.317       .  A
N241        N242   1.323       .  A
N242        C248   1.355       .  A
N243       N1645   1.317   1_445  A
N243        N244   1.323       .  A
N244       C1652   1.352       .  A
N245        N246   1.321       .  A
N245       Mn725   2.203   1_545  S
N246        C247   1.353       .  A
C247        C450   1.486       .  S
C248       N1648   1.352       .  A
C248        C303   1.477       .  S
N249        N255   1.317       .  A
N249        N250   1.320       .  A
N249       Mn279   2.202       .  S
N250        C258   1.349       .  A
N251        N252   1.318       .  A
N251        N253   1.317       .  A
N251       Mn257   2.200       .  S
N252        C259   1.351       .  A
N253        N254   1.321       .  A
N253       Mn279   2.202       .  S
N254        C259   1.355       .  A
N255        N256   1.323       .  A
N255       Mn257   2.211       .  S
N256        C258   1.355       .  A
Mn257       N713   2.203       .  S
Mn257      Cl749   2.550       .  S
C258        C443   1.470       .  S
C259        C383   1.480       .  S
N260        N261   1.323       .  A
N260        N266   1.316       .  A
N260       Mn268   2.221       .  S
N261        C269   1.358       .  A
N262        N264   1.317       .  A
N262        N263   1.322       .  A
N262       Mn280   2.206       .  S
N263        C270   1.354       .  A
N264        N265   1.317       .  A
N264       Mn268   2.192       .  S
N265        C270   1.347       .  A
N266        N267   1.317       .  A
N266       Mn280   2.183       .  S
N267        C269   1.348       .  A
Mn268      N1175   2.215   1_455  S
Mn268     Cl1217   2.542   1_455  S
C269        C430   1.479       .  S
C270        C363   1.464       .  S
N271        N272   1.325       .  A
N271       N1681   1.317       .  A
N271       Mn279   2.229       .  S
N272        C750   1.356       .  A
N273        N274   1.318       .  A
N273        N275   1.315       .  A
N273       Mn748   2.197       .  S
N274        C283   1.352       .  A
N275        N276   1.321       .  A
N275      Mn1215   2.193   1_455  S
N276        C283   1.352       .  A
N277       N1675   1.317   1_445  A
N277        N278   1.323       .  A
N277       Mn280   2.206       .  S
N278       C1218   1.352   1_455  A
Mn279      N1211   2.193       .  S
Mn279      Cl749   2.545       .  S
Mn280       N741   2.197   1_545  S
Mn280     Cl1217   2.550   1_455  S
Cl281      Mn725   2.550   1_545  S
Cl281     Mn1204   2.542       .  S
Cl281      Mn747   2.545   1_545  S
Cl281     Mn1216   2.550       .  S
C282        N740   1.356   1_545  A
C282       N1214   1.352       .  A
C282        C315   1.481       .  S
C283        C370   1.467       .  S
N284        N285   1.320       .  A
N284        N290   1.316       .  A
N284       Mn313   2.201       .  S
N285        C292   1.355       .  A
N286        N288   1.317       .  A
N286        N287   1.322       .  A
N286       Mn302   2.218       .  S
N287        C293   1.357       .  A
N288        N289   1.318       .  A
N288       Mn313   2.190       .  S
N289        C293   1.349       .  A
N290        N291   1.316       .  A
N290       Mn302   2.180       .  S
N291        C292   1.348       .  A
C292        C350   1.477       .  S
C293        C410   1.479       .  S
N294       N1704   1.316   1_445  A
N294        N295   1.325       .  A
N294       Mn324   2.221       .  S
N295       C1707   1.356       .  A
N296        N297   1.324       .  A
N296        N298   1.315       .  A
N296       Mn770   2.217   1_545  S
N297        C304   1.356       .  A
N298        N299   1.319       .  A
N298      Mn1260   2.198       .  S
N299        C304   1.352       .  A
N300       N1698   1.316       .  A
N300        N301   1.322       .  A
N300       Mn302   2.202       .  S
N301        C303   1.351       .  A
Mn302       N764   2.217       .  S
Mn302      Cl794   2.538       .  S
C303       N1699   1.356       .  A
C304        C420   1.483       .  S
N305        N306   1.320       .  A
N305        N311   1.313       .  A
N305      Mn1249   2.198   1_455  S
N306        C314   1.355       .  A
N307       N1713   1.317   1_445  A
N307        N308   1.324       .  A
N307       Mn325   2.226       .  S
N308       C1251   1.356   1_455  A
N309       N1711   1.317       .  A
N309        N310   1.324       .  A
N309       Mn313   2.213       .  S
N310        C783   1.354       .  A
N311        N312   1.316       .  A
N311       Mn793   2.180       .  S
N312        C314   1.351       .  A
Mn313      N1241   2.198       .  S
Mn313      Cl794   2.552       .  S
C314        C343   1.479       .  S
C315       N1244   1.356       .  A
C315        N778   1.354   1_545  A
N316        N317   1.319       .  A
N316        N322   1.315       .  A
N316       Mn324   2.202       .  S
N317        C327   1.353       .  A
N318        N319   1.321       .  A
N318        N320   1.318       .  A
N318       Mn325   2.214       .  S
N319        C328   1.351       .  A
N320        N321   1.322       .  A
N320       Mn324   2.208       .  S
N321        C328   1.354       .  A
N322        N323   1.318       .  A
N322       Mn325   2.187       .  S
N323        C327   1.352       .  A
Mn324      N1234   2.198   1_455  S
Mn324     Cl1262   2.553       .  S
Mn325       N779   2.180   1_545  S
Mn325     Cl1262   2.539       .  S
Cl326      Mn770   2.538   1_545  S
Cl326      Mn781   2.552   1_545  S
Cl326     Mn1260   2.553       .  S
Cl326     Mn1261   2.539       .  S
C327        C333   1.480       .  S
C328        C400   1.472       .  S
C329        C330   1.419       .  A
C329        C334   1.395       .  A
C329        F336   1.355       .  S
C330        C331   1.423       .  A
C331        C332   1.396       .  A
C331        F338   1.356       .  S
C332        C333   1.403       .  A
C332        F337   1.358       .  S
C333        C334   1.403       .  A
C334        F335   1.358       .  S
C339        C340   1.427       .  A
C339        C344   1.398       .  A
C339        F346   1.356       .  S
C340        C341   1.421       .  A
C341        C342   1.391       .  A
C341        F348   1.354       .  S
C342        C343   1.401       .  A
C342        F347   1.358       .  S
C343        C344   1.401       .  A
C344        F345   1.358       .  S
C349        C350   1.401       .  A
C349        C354   1.392       .  A
C349        F356   1.358       .  S
C350        C351   1.406       .  A
C351        C352   1.397       .  A
C351        F358   1.358       .  S
C352        C353   1.418       .  A
C352        F357   1.356       .  S
C353        C354   1.421       .  A
C354        F355   1.355       .  S
C359        C360   1.435       .  A
C359        C364   1.399       .  A
C359        F366   1.356       .  S
C360        C361   1.434       .  A
C361        C362   1.396       .  A
C361        F368   1.352       .  S
C362        C363   1.391       .  A
C362        F367   1.359       .  S
C363        C364   1.391       .  A
C364        F365   1.358       .  S
C369        C370   1.400       .  A
C369        C374   1.403       .  A
C369        F376   1.358       .  S
C370        C371   1.392       .  A
C371        C372   1.388       .  A
C371        F378   1.359       .  S
C372        C373   1.424       .  A
C372        F377   1.348       .  S
C373        C374   1.425       .  A
C374        F375   1.358       .  S
C379        C380   1.430       .  A
C379        C384   1.395       .  A
C379        F386   1.360       .  S
C380        C381   1.424       .  A
C381        C382   1.398       .  A
C381        F388   1.354       .  S
C382        C383   1.403       .  A
C382        F387   1.358       .  S
C383        C384   1.400       .  A
C384        F385   1.358       .  S
C389        C390   1.430       .  A
C389        C394   1.390       .  A
C389        F396   1.359       .  S
C390        C391   1.419       .  A
C391        C392   1.392       .  A
C391        F398   1.341       .  S
C392        C393   1.409       .  A
C392        F397   1.355       .  S
C393        C394   1.415       .  A
C394        F395   1.356       .  S
C399        C400   1.395       .  A
C399        C404   1.398       .  A
C399        F406   1.359       .  S
C400        C401   1.397       .  A
C401        C402   1.403       .  A
C401        F408   1.358       .  S
C402        C403   1.426       .  A
C402        F407   1.357       .  S
C403        C404   1.429       .  A
C404        F405   1.355       .  S
C409        C410   1.398       .  A
C409        C414   1.397       .  A
C409        F416   1.358       .  S
C410        C411   1.405       .  A
C411        C412   1.399       .  A
C411        F418   1.358       .  S
C412        C413   1.418       .  A
C412        F417   1.358       .  S
C413        C414   1.428       .  A
C414        F415   1.355       .  S
C419        C420   1.402       .  A
C419        C424   1.396       .  A
C419        F426   1.358       .  S
C420        C421   1.404       .  A
C421        C422   1.405       .  A
C421        F428   1.358       .  S
C422        C423   1.421       .  A
C422        F427   1.355       .  S
C423        C424   1.423       .  A
C424        F425   1.356       .  S
C429        C434   1.396       .  A
C429        F436   1.358       .  S
C430        C431   1.406       .  A
C431        C432   1.400       .  A
C431        F438   1.358       .  S
C432        C433   1.417       .  A
C432        F437   1.358       .  S
C434        F435   1.356       .  S
C439        F446   1.357       .  S
C440        C441   1.428       .  A
C441        C442   1.398       .  A
C441        F448   1.354       .  S
C442        C443   1.396       .  A
C442        F447   1.359       .  S
C443        C444   1.396       .  A
C449        C450   1.403       .  A
C449        C454   1.404       .  A
C449        F456   1.358       .  S
C450        C451   1.403       .  A
C451        C452   1.400   1_556  A
C451        F458   1.358   1_556  S
C452        C453   1.423   1_554  A
C452        F457   1.356       .  S
C453        C454   1.423       .  A
C454        F455   1.355       .  S
C459        C460   1.415       .  A
C459        C464   1.393       .  A
C459        F466   1.357       .  S
C460        C461   1.419       .  A
C461        C462   1.389       .  A
C461        F468   1.355       .  S
C462        C463   1.416       .  A
C462        F467   1.354       .  S
C463        C464   1.419       .  A
C464        F465   1.357       .  S
C469        C901   1.566   1_554  S
C469        C908   1.572   1_554  S
C469        C921   1.571   1_554  S
C469        C697   1.561       .  S
C470        C637   1.573       .  S
C470        C647   1.566       .  S
C470        C657   1.568       .  S
C470        C694   1.562       .  S
C471        C594   1.597       .  S
C471        C607   1.567       .  S
C471        C614   1.574       .  S
C471        C624   1.589       .  S
C472        C564   1.558       .  S
C472        C574   1.564       .  S
C472        C587   1.557       .  S
C472        C627   1.558       .  S
N473        N474   1.323       .  A
N473        N479   1.315       .  A
N473      Mn1438   2.215       .  S
N474        C481   1.356       .  A
N475        N945   1.317   1_565  A
N475        N476   1.323       .  A
N475       Mn725   2.221   1_554  S
N476        C482   1.355   1_565  A
N477        N943   1.317   1_455  A
N477        N478   1.323       .  A
N477       Mn736   2.209   1_554  S
N478        C950   1.352       .  A
N479        N480   1.321       .  A
N480        C481   1.353       .  A
C481        C684   1.486       .  S
C482        N946   1.352       .  A
C482        C537   1.477       .  S
N483        N489   1.317       .  A
N483        N484   1.320       .  A
N483       Mn513   2.202       .  S
N484        C492   1.349       .  A
N485        N486   1.318       .  A
N485        N487   1.317       .  A
N485       Mn491   2.200       .  S
N486        C493   1.351       .  A
N487        N488   1.321       .  A
N487       Mn513   2.202       .  S
N488        C493   1.355       .  A
N489        N490   1.323       .  A
N489       Mn491   2.211       .  S
N490        C492   1.355       .  A
Mn491       N709   2.221       .  S
C492        C677   1.470       .  S
C493        C617   1.480       .  S
N494        N495   1.323       .  A
N494        N500   1.316       .  A
N494       Mn502   2.221       .  S
N495        C503   1.358       .  A
N496        N498   1.317       .  A
N496        N497   1.322       .  A
N496       Mn514   2.206       .  S
N497        C504   1.354       .  A
N498        N499   1.317       .  A
N498       Mn502   2.192       .  S
N499        C504   1.347       .  A
N500        N501   1.317       .  A
N500       Mn514   2.183       .  S
N501        C503   1.348       .  A
Mn502      N1409   2.215   1_455  S
Mn502       N711   2.209       .  S
Mn502     Cl1451   2.542   1_455  S
C503        C664   1.479       .  S
C504        C597   1.464       .  S
N505        N506   1.325       .  A
N505        N979   1.317   1_565  A
N505       Mn513   2.229       .  S
N507        N508   1.318       .  A
N507        N509   1.315       .  A
N508        C517   1.352       .  A
N509        N510   1.321       .  A
N509      Mn1449   2.193   1_455  S
N510        C517   1.352       .  A
N511        N973   1.317   1_455  A
N511        N512   1.323       .  A
N511       Mn514   2.206       .  S
N512       C1452   1.352   1_455  A
Mn513      N1445   2.193       .  S
Mn514     Cl1451   2.550   1_455  S
Cl515     Mn1438   2.542       .  S
Cl515     Mn1450   2.550       .  S
C516       N1448   1.352       .  A
C516        C549   1.481       .  S
C517        C604   1.467       .  S
N518        N519   1.320       .  A
N518        N524   1.316       .  A
N518       Mn547   2.201       .  S
N519        C526   1.355       .  A
N520        N522   1.317       .  A
N520        N521   1.322       .  A
N520       Mn536   2.218       .  S
N521        C527   1.357       .  A
N522        N523   1.318       .  A
N522       Mn547   2.190       .  S
N523        C527   1.349       .  A
N524        N525   1.316       .  A
N524       Mn536   2.180       .  S
N525        C526   1.348       .  A
C526        C584   1.477       .  S
C527        C644   1.479       .  S
N528       N1002   1.316   1_455  A
N528        N529   1.325       .  A
N528       Mn558   2.221       .  S
N529       C1005   1.356       .  A
N530        N531   1.324       .  A
N530        N532   1.315       .  A
N531        C538   1.356       .  A
N532        N533   1.319       .  A
N532      Mn1494   2.198       .  S
N533        C538   1.352       .  A
N534        N996   1.316   1_565  A
N534        N535   1.322       .  A
N534       Mn536   2.202       .  S
N535        C537   1.351   1_565  A
C537        N997   1.356       .  A
C538        C654   1.483       .  S
N539        N540   1.320       .  A
N539        N545   1.313       .  A
N539      Mn1483   2.198   1_455  S
N540        C548   1.355       .  A
N541       N1011   1.317   1_455  A
N541        N542   1.324       .  A
N541       Mn559   2.226       .  S
N542       C1485   1.356   1_455  A
N543       N1009   1.317   1_565  A
N543        N544   1.324       .  A
N543       Mn547   2.213       .  S
N545        N546   1.316       .  A
N546        C548   1.351       .  A
Mn547      N1475   2.198       .  S
C548        C577   1.479       .  S
C549       N1478   1.356       .  A
N550        N551   1.319       .  A
N550        N556   1.315       .  A
N550       Mn558   2.202       .  S
N551        C561   1.353       .  A
N552        N553   1.321       .  A
N552        N554   1.318       .  A
N552       Mn559   2.214       .  S
N553        C562   1.351       .  A
N554        N555   1.322       .  A
N554       Mn558   2.208       .  S
N555        C562   1.354       .  A
N556        N557   1.318       .  A
N556       Mn559   2.187       .  S
N557        C561   1.352       .  A
Mn558      N1468   2.198   1_455  S
Mn558     Cl1496   2.553       .  S
Mn559     Cl1496   2.539       .  S
Cl560     Mn1494   2.553       .  S
Cl560     Mn1495   2.539       .  S
C561        C567   1.480       .  S
C562        C634   1.472       .  S
C563        C564   1.419       .  A
C563        C568   1.395       .  A
C563        F570   1.355       .  S
C564        C565   1.423       .  A
C565        C566   1.396       .  A
C565        F572   1.356       .  S
C566        C567   1.403       .  A
C566        F571   1.358       .  S
C567        C568   1.403       .  A
C568        F569   1.358       .  S
C573        C574   1.427       .  A
C573        C578   1.398       .  A
C573        F580   1.356       .  S
C574        C575   1.421       .  A
C575        C576   1.391       .  A
C575        F582   1.354       .  S
C576        C577   1.401       .  A
C576        F581   1.358       .  S
C577        C578   1.401       .  A
C578        F579   1.358       .  S
C583        C584   1.401       .  A
C583        C588   1.392       .  A
C583        F590   1.358       .  S
C584        C585   1.406       .  A
C585        C586   1.397       .  A
C585        F592   1.358       .  S
C586        C587   1.418       .  A
C586        F591   1.356       .  S
C587        C588   1.421       .  A
C588        F589   1.355       .  S
C593        C594   1.435       .  A
C593        C598   1.399       .  A
C593        F600   1.356       .  S
C594        C595   1.434       .  A
C595        C596   1.396       .  A
C595        F602   1.352       .  S
C596        C597   1.391       .  A
C596        F601   1.359       .  S
C597        C598   1.391       .  A
C598        F599   1.358       .  S
C603        C604   1.400       .  A
C603        C608   1.403       .  A
C603        F610   1.358       .  S
C604        C605   1.392       .  A
C605        C606   1.388       .  A
C605        F612   1.359       .  S
C606        C607   1.424       .  A
C606        F611   1.348       .  S
C607        C608   1.425       .  A
C608        F609   1.358       .  S
C613        C614   1.430       .  A
C613        C618   1.395       .  A
C613        F620   1.360       .  S
C614        C615   1.424       .  A
C615        C616   1.398       .  A
C615        F622   1.354       .  S
C616        C617   1.403       .  A
C616        F621   1.358       .  S
C617        C618   1.400       .  A
C618        F619   1.358       .  S
C623        C624   1.430       .  A
C623        C628   1.390       .  A
C623        F630   1.359       .  S
C624        C625   1.419       .  A
C625        C626   1.392       .  A
C625        F632   1.341       .  S
C626        C627   1.409       .  A
C626        F631   1.355       .  S
C627        C628   1.415       .  A
C628        F629   1.356       .  S
C633        C634   1.395       .  A
C633        C638   1.398       .  A
C633        F640   1.359       .  S
C634        C635   1.397       .  A
C635        C636   1.403       .  A
C635        F642   1.358       .  S
C636        C637   1.426       .  A
C636        F641   1.357       .  S
C637        C638   1.429       .  A
C638        F639   1.355       .  S
C643        C644   1.398       .  A
C643        C648   1.397       .  A
C643        F650   1.358       .  S
C644        C645   1.405       .  A
C645        C646   1.399       .  A
C645        F652   1.358       .  S
C646        C647   1.418       .  A
C646        F651   1.358       .  S
C647        C648   1.428       .  A
C648        F649   1.355       .  S
C653        C654   1.402       .  A
C653        C658   1.396       .  A
C653        F660   1.358       .  S
C654        C655   1.404       .  A
C655        C656   1.405       .  A
C655        F662   1.358       .  S
C656        C657   1.421       .  A
C656        F661   1.355       .  S
C657        C658   1.423       .  A
C658        F659   1.356       .  S
C663        C898   1.397   1_554  A
C663        C668   1.396       .  A
C663        F670   1.358       .  S
C664        C897   1.397       .  A
C664        C665   1.406       .  A
C665        C666   1.400       .  A
C665        F672   1.358       .  S
C666        C667   1.417       .  A
C666        F671   1.358       .  S
C667        C703   1.566       .  S
C667        C902   1.428       .  A
C668        C901   1.428   1_554  A
C668        F669   1.356       .  S
C673        C908   1.427   1_554  A
C673        C912   1.401   1_554  A
C673        F680   1.357       .  S
C674        C703   1.572       .  S
C674        C907   1.427       .  A
C674        C675   1.428       .  A
C675        C676   1.398       .  A
C675        F682   1.354       .  S
C676        C677   1.396       .  A
C676        F681   1.359       .  S
C677        C678   1.396       .  A
C678        C907   1.401       .  A
C678        F913   1.358       .  S
F679        C912   1.358   1_554  S
C683        C684   1.403       .  A
C683        C688   1.404       .  A
C683        F690   1.358       .  S
C684        C685   1.403       .  A
C685        C686   1.400       .  A
C685        F692   1.358       .  S
C686        C687   1.423       .  A
C686        F691   1.356       .  S
C687        C703   1.571       .  S
C687        C688   1.423       .  A
C688        F689   1.355       .  S
C693        C694   1.415       .  A
C693        C698   1.393       .  A
C693        F700   1.357       .  S
C694        C695   1.419       .  A
C695        C696   1.389       .  A
C695        F702   1.355       .  S
C696        C697   1.416       .  A
C696        F701   1.354       .  S
C697        C698   1.419       .  A
C698        F699   1.357       .  S
C703        C931   1.561       .  S
C704        C871   1.573       .  S
C704        C881   1.566       .  S
C704        C891   1.568       .  S
C704        C928   1.562       .  S
C705        C828   1.597       .  S
C705        C841   1.567       .  S
C705        C848   1.574       .  S
C705        C858   1.589       .  S
C706        C798   1.558       .  S
C706        C808   1.564       .  S
C706        C821   1.557       .  S
C706        C861   1.558       .  S
N707        N708   1.323       .  A
N707        N713   1.315       .  A
N707      Mn1672   2.215       .  S
N708        C715   1.356       .  A
N709       N1179   1.317   1_565  A
N709        N710   1.323       .  A
N710        C716   1.355   1_565  A
N711       N1177   1.317   1_455  A
N711        N712   1.323       .  A
N712       C1184   1.352       .  A
N713        N714   1.321       .  A
N714        C715   1.353       .  A
C715        C918   1.486       .  S
C716       N1180   1.352       .  A
C716        C771   1.477       .  S
N717        N723   1.317       .  A
N717        N718   1.320       .  A
N717       Mn747   2.202       .  S
N718        C726   1.349       .  A
N719        N720   1.318       .  A
N719        N721   1.317       .  A
N719       Mn725   2.200       .  S
N720        C727   1.351       .  A
N721        N722   1.321       .  A
N721       Mn747   2.202       .  S
N722        C727   1.355       .  A
N723        N724   1.323       .  A
N723       Mn725   2.211       .  S
N724        C726   1.355       .  A
C726        C911   1.470       .  S
C727        C851   1.480       .  S
N728        N729   1.323       .  A
N728        N734   1.316       .  A
N728       Mn736   2.221       .  S
N729        C737   1.358       .  A
N730        N732   1.317       .  A
N730        N731   1.322       .  A
N730       Mn748   2.206       .  S
N731        C738   1.354       .  A
N732        N733   1.317       .  A
N732       Mn736   2.192       .  S
N733        C738   1.347       .  A
N734        N735   1.317       .  A
N734       Mn748   2.183       .  S
N735        C737   1.348       .  A
Mn736      N1643   2.215   1_455  S
Mn736     Cl1685   2.542   1_455  S
C737        C898   1.479       .  S
C738        C831   1.464       .  S
N739        N740   1.325       .  A
N739       N1213   1.317   1_565  A
N739       Mn747   2.229       .  S
N741        N742   1.318       .  A
N741        N743   1.315       .  A
N742        C751   1.352       .  A
N743        N744   1.321       .  A
N743      Mn1683   2.193   1_455  S
N744        C751   1.352       .  A
N745       N1207   1.317   1_455  A
N745        N746   1.323       .  A
N745       Mn748   2.206       .  S
N746       C1686   1.352   1_455  A
Mn747      N1679   2.193       .  S
Mn748     Cl1685   2.550   1_455  S
Cl749     Mn1672   2.542       .  S
Cl749     Mn1684   2.550       .  S
C750       N1682   1.352       .  A
C750        C783   1.481       .  S
C751        C838   1.467       .  S
N752        N753   1.320       .  A
N752        N758   1.316       .  A
N752       Mn781   2.201       .  S
N753        C760   1.355       .  A
N754        N756   1.317       .  A
N754        N755   1.322       .  A
N754       Mn770   2.218       .  S
N755        C761   1.357       .  A
N756        N757   1.318       .  A
N756       Mn781   2.190       .  S
N757        C761   1.349       .  A
N758        N759   1.316       .  A
N758       Mn770   2.180       .  S
N759        C760   1.348       .  A
C760        C818   1.477       .  S
C761        C878   1.479       .  S
N762       N1236   1.316   1_455  A
N762        N763   1.325       .  A
N762       Mn792   2.221       .  S
N763       C1239   1.356       .  A
N764        N765   1.324       .  A
N764        N766   1.315       .  A
N765        C772   1.356       .  A
N766        N767   1.319       .  A
N766      Mn1728   2.198       .  S
N767        C772   1.352       .  A
N768       N1230   1.316   1_565  A
N768        N769   1.322       .  A
N768       Mn770   2.202       .  S
N769        C771   1.351   1_565  A
C771       N1231   1.356       .  A
C772        C888   1.483       .  S
N773        N774   1.320       .  A
N773        N779   1.313       .  A
N773      Mn1717   2.198   1_455  S
N774        C782   1.355       .  A
N775       N1245   1.317   1_455  A
N775        N776   1.324       .  A
N775       Mn793   2.226       .  S
N776       C1719   1.356   1_455  A
N777       N1243   1.317   1_565  A
N777        N778   1.324       .  A
N777       Mn781   2.213       .  S
N779        N780   1.316       .  A
N780        C782   1.351       .  A
Mn781      N1709   2.198       .  S
C782        C811   1.479       .  S
C783       N1712   1.356       .  A
N784        N785   1.319       .  A
N784        N790   1.315       .  A
N784       Mn792   2.202       .  S
N785        C795   1.353       .  A
N786        N787   1.321       .  A
N786        N788   1.318       .  A
N786       Mn793   2.214       .  S
N787        C796   1.351       .  A
N788        N789   1.322       .  A
N788       Mn792   2.208       .  S
N789        C796   1.354       .  A
N790        N791   1.318       .  A
N790       Mn793   2.187       .  S
N791        C795   1.352       .  A
Mn792      N1702   2.198   1_455  S
Mn792     Cl1730   2.553       .  S
Mn793     Cl1730   2.539       .  S
Cl794     Mn1728   2.553       .  S
Cl794     Mn1729   2.539       .  S
C795        C801   1.480       .  S
C796        C868   1.472       .  S
C797        C798   1.419       .  A
C797        C802   1.395       .  A
C797        F804   1.355       .  S
C798        C799   1.423       .  A
C799        C800   1.396       .  A
C799        F806   1.356       .  S
C800        C801   1.403       .  A
C800        F805   1.358       .  S
C801        C802   1.403       .  A
C802        F803   1.358       .  S
C807        C808   1.427       .  A
C807        C812   1.398       .  A
C807        F814   1.356       .  S
C808        C809   1.421       .  A
C809        C810   1.391       .  A
C809        F816   1.354       .  S
C810        C811   1.401       .  A
C810        F815   1.358       .  S
C811        C812   1.401       .  A
C812        F813   1.358       .  S
C817        C818   1.401       .  A
C817        C822   1.392       .  A
C817        F824   1.358       .  S
C818        C819   1.406       .  A
C819        C820   1.397       .  A
C819        F826   1.358       .  S
C820        C821   1.418       .  A
C820        F825   1.356       .  S
C821        C822   1.421       .  A
C822        F823   1.355       .  S
C827        C828   1.435       .  A
C827        C832   1.399       .  A
C827        F834   1.356       .  S
C828        C829   1.434       .  A
C829        C830   1.396       .  A
C829        F836   1.352       .  S
C830        C831   1.391       .  A
C830        F835   1.359       .  S
C831        C832   1.391       .  A
C832        F833   1.358       .  S
C837        C838   1.400       .  A
C837        C842   1.403       .  A
C837        F844   1.358       .  S
C838        C839   1.392       .  A
C839        C840   1.388       .  A
C839        F846   1.359       .  S
C840        C841   1.424       .  A
C840        F845   1.348       .  S
C841        C842   1.425       .  A
C842        F843   1.358       .  S
C847        C848   1.430       .  A
C847        C852   1.395       .  A
C847        F854   1.360       .  S
C848        C849   1.424       .  A
C849        C850   1.398       .  A
C849        F856   1.354       .  S
C850        C851   1.403       .  A
C850        F855   1.358       .  S
C851        C852   1.400       .  A
C852        F853   1.358       .  S
C857        C858   1.430       .  A
C857        C862   1.390       .  A
C857        F864   1.359       .  S
C858        C859   1.419       .  A
C859        C860   1.392       .  A
C859        F866   1.341       .  S
C860        C861   1.409       .  A
C860        F865   1.355       .  S
C861        C862   1.415       .  A
C862        F863   1.356       .  S
C867        C868   1.395       .  A
C867        C872   1.398       .  A
C867        F874   1.359       .  S
C868        C869   1.397       .  A
C869        C870   1.403       .  A
C869        F876   1.358       .  S
C870        C871   1.426       .  A
C870        F875   1.357       .  S
C871        C872   1.429       .  A
C872        F873   1.355       .  S
C877        C878   1.398       .  A
C877        C882   1.397       .  A
C877        F884   1.358       .  S
C878        C879   1.405       .  A
C879        C880   1.399       .  A
C879        F886   1.358       .  S
C880        C881   1.418       .  A
C880        F885   1.358       .  S
C881        C882   1.428       .  A
C882        F883   1.355       .  S
C887        C888   1.402       .  A
C887        C892   1.396       .  A
C887        F894   1.358       .  S
C888        C889   1.404       .  A
C889        C890   1.405       .  A
C889        F896   1.358       .  S
C890        C891   1.421       .  A
C890        F895   1.355       .  S
C891        C892   1.423       .  A
C892        F893   1.356       .  S
C897        C902   1.396       .  A
C897        F904   1.358       .  S
C898        C899   1.406       .  A
C899        C900   1.400       .  A
C899        F906   1.358       .  S
C900        C901   1.417       .  A
C900        F905   1.358       .  S
C902        F903   1.356       .  S
C907        F914   1.357       .  S
C908        C909   1.428       .  A
C909        C910   1.398       .  A
C909        F916   1.354       .  S
C910        C911   1.396       .  A
C910        F915   1.359       .  S
C911        C912   1.396       .  A
C917        C918   1.403       .  A
C917        C922   1.404       .  A
C917        F924   1.358       .  S
C918        C919   1.403       .  A
C919        C920   1.400   1_556  A
C919        F926   1.358   1_556  S
C920        C921   1.423   1_554  A
C920        F925   1.356       .  S
C921        C922   1.423       .  A
C922        F923   1.355       .  S
C927        C928   1.415       .  A
C927        C932   1.393       .  A
C927        F934   1.357       .  S
C928        C929   1.419       .  A
C929        C930   1.389       .  A
C929        F936   1.355       .  S
C930        C931   1.416       .  A
C930        F935   1.354       .  S
C931        C932   1.419       .  A
C932        F933   1.357       .  S
C937       C1369   1.566   1_554  S
C937       C1376   1.572   1_554  S
C937       C1389   1.571   1_554  S
C937       C1165   1.561       .  S
C938       C1105   1.573       .  S
C938       C1115   1.566       .  S
C938       C1125   1.568       .  S
C938       C1162   1.562       .  S
C939       C1062   1.597       .  S
C939       C1075   1.567       .  S
C939       C1082   1.574       .  S
C939       C1092   1.589       .  S
C940       C1032   1.558       .  S
C940       C1042   1.564       .  S
C940       C1055   1.557       .  S
C940       C1095   1.558       .  S
N941        N942   1.323       .  A
N941        N947   1.315       .  A
N942        C949   1.356       .  A
N943        N944   1.323       .  A
N943      Mn1193   2.221   1_554  S
N944        C950   1.355   1_655  A
N945        N946   1.323       .  A
N945      Mn1204   2.209   1_554  S
N947        N948   1.321       .  A
N947      Mn1427   2.203   1_545  S
N948        C949   1.353       .  A
C949       C1152   1.486       .  S
C950       C1005   1.477       .  S
N951        N957   1.317       .  A
N951        N952   1.320       .  A
N951       Mn981   2.202       .  S
N952        C960   1.349       .  A
N953        N954   1.318       .  A
N953        N955   1.317       .  A
N953       Mn959   2.200       .  S
N954        C961   1.351       .  A
N955        N956   1.321       .  A
N955       Mn981   2.202       .  S
N956        C961   1.355       .  A
N957        N958   1.323       .  A
N957       Mn959   2.211       .  S
N958        C960   1.355       .  A
Mn959      N1177   2.221       .  S
Mn959      N1415   2.203       .  S
Mn959     Cl1451   2.550       .  S
C960       C1145   1.470       .  S
C961       C1085   1.480       .  S
N962        N963   1.323       .  A
N962        N968   1.316       .  A
N962       Mn970   2.221       .  S
N963        C971   1.358       .  A
N964        N966   1.317       .  A
N964        N965   1.322       .  A
N964       Mn982   2.206       .  S
N965        C972   1.354       .  A
N966        N967   1.317       .  A
N966       Mn970   2.192       .  S
N967        C972   1.347       .  A
N968        N969   1.317       .  A
N968       Mn982   2.183       .  S
N969        C971   1.348       .  A
Mn970      N1179   2.209       .  S
C971       C1132   1.479       .  S
C972       C1065   1.464       .  S
N973        N974   1.325       .  A
N973       Mn981   2.229       .  S
N974       C1452   1.356       .  A
N975        N976   1.318       .  A
N975        N977   1.315       .  A
N975      Mn1450   2.197       .  S
N976        C985   1.352       .  A
N977        N978   1.321       .  A
N978        C985   1.352       .  A
N979        N980   1.323       .  A
N979       Mn982   2.206       .  S
Mn981     Cl1451   2.545       .  S
Mn982      N1443   2.197   1_545  S
Cl983     Mn1427   2.550   1_545  S
Cl983     Mn1449   2.545   1_545  S
C984       N1442   1.356   1_545  A
C984       C1017   1.481       .  S
C985       C1072   1.467       .  S
N986        N987   1.320       .  A
N986        N992   1.316       .  A
N986      Mn1015   2.201       .  S
N987        C994   1.355       .  A
N988        N990   1.317       .  A
N988        N989   1.322       .  A
N988      Mn1004   2.218       .  S
N989        C995   1.357       .  A
N990        N991   1.318       .  A
N990      Mn1015   2.190       .  S
N991        C995   1.349       .  A
N992        N993   1.316       .  A
N992      Mn1004   2.180       .  S
N993        C994   1.348       .  A
C994       C1052   1.477       .  S
C995       C1112   1.479       .  S
N996        N997   1.325       .  A
N996      Mn1026   2.221       .  S
N998        N999   1.324       .  A
N998       N1000   1.315       .  A
N998      Mn1472   2.217   1_545  S
N999       C1006   1.356       .  A
N1000      N1001   1.319       .  A
N1001      C1006   1.352       .  A
N1002      N1003   1.322       .  A
N1002     Mn1004   2.202       .  S
N1003      C1005   1.351   1_655  A
Mn1004     N1466   2.217       .  S
Mn1004    Cl1496   2.538   1_655  S
C1006      C1122   1.483       .  S
N1007      N1008   1.320       .  A
N1007      N1013   1.313       .  A
N1008      C1016   1.355       .  A
N1009      N1010   1.324       .  A
N1009     Mn1027   2.226       .  S
N1011      N1012   1.324       .  A
N1011     Mn1015   2.213       .  S
N1012      C1485   1.354       .  A
N1013      N1014   1.316       .  A
N1013     Mn1495   2.180       .  S
N1014      C1016   1.351       .  A
Mn1015    Cl1496   2.552   1_655  S
C1016      C1045   1.479       .  S
C1017      N1480   1.354   1_545  A
N1018      N1019   1.319       .  A
N1018      N1024   1.315       .  A
N1018     Mn1026   2.202       .  S
N1019      C1029   1.353       .  A
N1020      N1021   1.321       .  A
N1020      N1022   1.318       .  A
N1020     Mn1027   2.214       .  S
N1021      C1030   1.351       .  A
N1022      N1023   1.322       .  A
N1022     Mn1026   2.208       .  S
N1023      C1030   1.354       .  A
N1024      N1025   1.318       .  A
N1024     Mn1027   2.187       .  S
N1025      C1029   1.352       .  A
Mn1027     N1481   2.180   1_545  S
Cl1028    Mn1472   2.538   1_445  S
Cl1028    Mn1483   2.552   1_445  S
C1029      C1035   1.480       .  S
C1030      C1102   1.472       .  S
C1031      C1032   1.419       .  A
C1031      C1036   1.395       .  A
C1031      F1038   1.355       .  S
C1032      C1033   1.423       .  A
C1033      C1034   1.396       .  A
C1033      F1040   1.356       .  S
C1034      C1035   1.403       .  A
C1034      F1039   1.358       .  S
C1035      C1036   1.403       .  A
C1036      F1037   1.358       .  S
C1041      C1042   1.427       .  A
C1041      C1046   1.398       .  A
C1041      F1048   1.356       .  S
C1042      C1043   1.421       .  A
C1043      C1044   1.391       .  A
C1043      F1050   1.354       .  S
C1044      C1045   1.401       .  A
C1044      F1049   1.358       .  S
C1045      C1046   1.401       .  A
C1046      F1047   1.358       .  S
C1051      C1052   1.401       .  A
C1051      C1056   1.392       .  A
C1051      F1058   1.358       .  S
C1052      C1053   1.406       .  A
C1053      C1054   1.397       .  A
C1053      F1060   1.358       .  S
C1054      C1055   1.418       .  A
C1054      F1059   1.356       .  S
C1055      C1056   1.421       .  A
C1056      F1057   1.355       .  S
C1061      C1062   1.435       .  A
C1061      C1066   1.399       .  A
C1061      F1068   1.356       .  S
C1062      C1063   1.434       .  A
C1063      C1064   1.396       .  A
C1063      F1070   1.352       .  S
C1064      C1065   1.391       .  A
C1064      F1069   1.359       .  S
C1065      C1066   1.391       .  A
C1066      F1067   1.358       .  S
C1071      C1072   1.400       .  A
C1071      C1076   1.403       .  A
C1071      F1078   1.358       .  S
C1072      C1073   1.392       .  A
C1073      C1074   1.388       .  A
C1073      F1080   1.359       .  S
C1074      C1075   1.424       .  A
C1074      F1079   1.348       .  S
C1075      C1076   1.425       .  A
C1076      F1077   1.358       .  S
C1081      C1082   1.430       .  A
C1081      C1086   1.395       .  A
C1081      F1088   1.360       .  S
C1082      C1083   1.424       .  A
C1083      C1084   1.398       .  A
C1083      F1090   1.354       .  S
C1084      C1085   1.403       .  A
C1084      F1089   1.358       .  S
C1085      C1086   1.400       .  A
C1086      F1087   1.358       .  S
C1091      C1092   1.430       .  A
C1091      C1096   1.390       .  A
C1091      F1098   1.359       .  S
C1092      C1093   1.419       .  A
C1093      C1094   1.392       .  A
C1093      F1100   1.341       .  S
C1094      C1095   1.409       .  A
C1094      F1099   1.355       .  S
C1095      C1096   1.415       .  A
C1096      F1097   1.356       .  S
C1101      C1102   1.395       .  A
C1101      C1106   1.398       .  A
C1101      F1108   1.359       .  S
C1102      C1103   1.397       .  A
C1103      C1104   1.403       .  A
C1103      F1110   1.358       .  S
C1104      C1105   1.426       .  A
C1104      F1109   1.357       .  S
C1105      C1106   1.429       .  A
C1106      F1107   1.355       .  S
C1111      C1112   1.398       .  A
C1111      C1116   1.397       .  A
C1111      F1118   1.358       .  S
C1112      C1113   1.405       .  A
C1113      C1114   1.399       .  A
C1113      F1120   1.358       .  S
C1114      C1115   1.418       .  A
C1114      F1119   1.358       .  S
C1115      C1116   1.428       .  A
C1116      F1117   1.355       .  S
C1121      C1122   1.402       .  A
C1121      C1126   1.396       .  A
C1121      F1128   1.358       .  S
C1122      C1123   1.404       .  A
C1123      C1124   1.405       .  A
C1123      F1130   1.358       .  S
C1124      C1125   1.421       .  A
C1124      F1129   1.355       .  S
C1125      C1126   1.423       .  A
C1126      F1127   1.356       .  S
C1131      C1366   1.397   1_554  A
C1131      C1136   1.396       .  A
C1131      F1138   1.358       .  S
C1132      C1365   1.397       .  A
C1132      C1133   1.406       .  A
C1133      C1134   1.400       .  A
C1133      F1140   1.358       .  S
C1134      C1135   1.417       .  A
C1134      F1139   1.358       .  S
C1135      C1171   1.566       .  S
C1135      C1370   1.428       .  A
C1136      C1369   1.428   1_554  A
C1136      F1137   1.356       .  S
C1141      C1376   1.427   1_554  A
C1141      C1380   1.401   1_554  A
C1141      F1148   1.357       .  S
C1142      C1171   1.572       .  S
C1142      C1375   1.427       .  A
C1142      C1143   1.428       .  A
C1143      C1144   1.398       .  A
C1143      F1150   1.354       .  S
C1144      C1145   1.396       .  A
C1144      F1149   1.359       .  S
C1145      C1146   1.396       .  A
C1146      C1375   1.401       .  A
C1146      F1381   1.358       .  S
F1147      C1380   1.358   1_554  S
C1151      C1152   1.403       .  A
C1151      C1156   1.404       .  A
C1151      F1158   1.358       .  S
C1152      C1153   1.403       .  A
C1153      C1154   1.400       .  A
C1153      F1160   1.358       .  S
C1154      C1155   1.423       .  A
C1154      F1159   1.356       .  S
C1155      C1171   1.571       .  S
C1155      C1156   1.423       .  A
C1156      F1157   1.355       .  S
C1161      C1162   1.415       .  A
C1161      C1166   1.393       .  A
C1161      F1168   1.357       .  S
C1162      C1163   1.419       .  A
C1163      C1164   1.389       .  A
C1163      F1170   1.355       .  S
C1164      C1165   1.416       .  A
C1164      F1169   1.354       .  S
C1165      C1166   1.419       .  A
C1166      F1167   1.357       .  S
C1171      C1399   1.561       .  S
C1172      C1339   1.573       .  S
C1172      C1349   1.566       .  S
C1172      C1359   1.568       .  S
C1172      C1396   1.562       .  S
C1173      C1296   1.597       .  S
C1173      C1309   1.567       .  S
C1173      C1316   1.574       .  S
C1173      C1326   1.589       .  S
C1174      C1266   1.558       .  S
C1174      C1276   1.564       .  S
C1174      C1289   1.557       .  S
C1174      C1329   1.558       .  S
N1175      N1176   1.323       .  A
N1175      N1181   1.315       .  A
N1176      C1183   1.356       .  A
N1177      N1178   1.323       .  A
N1178      C1184   1.355   1_655  A
N1179      N1180   1.323       .  A
N1181      N1182   1.321       .  A
N1181     Mn1661   2.203   1_545  S
N1182      C1183   1.353       .  A
C1183      C1386   1.486       .  S
C1184      C1239   1.477       .  S
N1185      N1191   1.317       .  A
N1185      N1186   1.320       .  A
N1185     Mn1215   2.202       .  S
N1186      C1194   1.349       .  A
N1187      N1188   1.318       .  A
N1187      N1189   1.317       .  A
N1187     Mn1193   2.200       .  S
N1188      C1195   1.351       .  A
N1189      N1190   1.321       .  A
N1189     Mn1215   2.202       .  S
N1190      C1195   1.355       .  A
N1191      N1192   1.323       .  A
N1191     Mn1193   2.211       .  S
N1192      C1194   1.355       .  A
Mn1193     N1649   2.203       .  S
Mn1193    Cl1685   2.550       .  S
C1194      C1379   1.470       .  S
C1195      C1319   1.480       .  S
N1196      N1197   1.323       .  A
N1196      N1202   1.316       .  A
N1196     Mn1204   2.221       .  S
N1197      C1205   1.358       .  A
N1198      N1200   1.317       .  A
N1198      N1199   1.322       .  A
N1198     Mn1216   2.206       .  S
N1199      C1206   1.354       .  A
N1200      N1201   1.317       .  A
N1200     Mn1204   2.192       .  S
N1201      C1206   1.347       .  A
N1202      N1203   1.317       .  A
N1202     Mn1216   2.183       .  S
N1203      C1205   1.348       .  A
C1205      C1366   1.479       .  S
C1206      C1299   1.464       .  S
N1207      N1208   1.325       .  A
N1207     Mn1215   2.229       .  S
N1208      C1686   1.356       .  A
N1209      N1210   1.318       .  A
N1209      N1211   1.315       .  A
N1209     Mn1684   2.197       .  S
N1210      C1219   1.352       .  A
N1211      N1212   1.321       .  A
N1212      C1219   1.352       .  A
N1213      N1214   1.323       .  A
N1213     Mn1216   2.206       .  S
Mn1215    Cl1685   2.545       .  S
Mn1216     N1677   2.197   1_545  S
Cl1217    Mn1661   2.550   1_545  S
Cl1217    Mn1683   2.545   1_545  S
C1218      N1676   1.356   1_545  A
C1218      C1251   1.481       .  S
C1219      C1306   1.467       .  S
N1220      N1221   1.320       .  A
N1220      N1226   1.316       .  A
N1220     Mn1249   2.201       .  S
N1221      C1228   1.355       .  A
N1222      N1224   1.317       .  A
N1222      N1223   1.322       .  A
N1222     Mn1238   2.218       .  S
N1223      C1229   1.357       .  A
N1224      N1225   1.318       .  A
N1224     Mn1249   2.190       .  S
N1225      C1229   1.349       .  A
N1226      N1227   1.316       .  A
N1226     Mn1238   2.180       .  S
N1227      C1228   1.348       .  A
C1228      C1286   1.477       .  S
C1229      C1346   1.479       .  S
N1230      N1231   1.325       .  A
N1230     Mn1260   2.221       .  S
N1232      N1233   1.324       .  A
N1232      N1234   1.315       .  A
N1232     Mn1706   2.217   1_545  S
N1233      C1240   1.356       .  A
N1234      N1235   1.319       .  A
N1235      C1240   1.352       .  A
N1236      N1237   1.322       .  A
N1236     Mn1238   2.202       .  S
N1237      C1239   1.351   1_655  A
Mn1238     N1700   2.217       .  S
Mn1238    Cl1730   2.538   1_655  S
C1240      C1356   1.483       .  S
N1241      N1242   1.320       .  A
N1241      N1247   1.313       .  A
N1242      C1250   1.355       .  A
N1243      N1244   1.324       .  A
N1243     Mn1261   2.226       .  S
N1245      N1246   1.324       .  A
N1245     Mn1249   2.213       .  S
N1246      C1719   1.354       .  A
N1247      N1248   1.316       .  A
N1247     Mn1729   2.180       .  S
N1248      C1250   1.351       .  A
Mn1249    Cl1730   2.552   1_655  S
C1250      C1279   1.479       .  S
C1251      N1714   1.354   1_545  A
N1252      N1253   1.319       .  A
N1252      N1258   1.315       .  A
N1252     Mn1260   2.202       .  S
N1253      C1263   1.353       .  A
N1254      N1255   1.321       .  A
N1254      N1256   1.318       .  A
N1254     Mn1261   2.214       .  S
N1255      C1264   1.351       .  A
N1256      N1257   1.322       .  A
N1256     Mn1260   2.208       .  S
N1257      C1264   1.354       .  A
N1258      N1259   1.318       .  A
N1258     Mn1261   2.187       .  S
N1259      C1263   1.352       .  A
Mn1261     N1715   2.180   1_545  S
Cl1262    Mn1706   2.538   1_445  S
Cl1262    Mn1717   2.552   1_445  S
C1263      C1269   1.480       .  S
C1264      C1336   1.472       .  S
C1265      C1266   1.419       .  A
C1265      C1270   1.395       .  A
C1265      F1272   1.355       .  S
C1266      C1267   1.423       .  A
C1267      C1268   1.396       .  A
C1267      F1274   1.356       .  S
C1268      C1269   1.403       .  A
C1268      F1273   1.358       .  S
C1269      C1270   1.403       .  A
C1270      F1271   1.358       .  S
C1275      C1276   1.427       .  A
C1275      C1280   1.398       .  A
C1275      F1282   1.356       .  S
C1276      C1277   1.421       .  A
C1277      C1278   1.391       .  A
C1277      F1284   1.354       .  S
C1278      C1279   1.401       .  A
C1278      F1283   1.358       .  S
C1279      C1280   1.401       .  A
C1280      F1281   1.358       .  S
C1285      C1286   1.401       .  A
C1285      C1290   1.392       .  A
C1285      F1292   1.358       .  S
C1286      C1287   1.406       .  A
C1287      C1288   1.397       .  A
C1287      F1294   1.358       .  S
C1288      C1289   1.418       .  A
C1288      F1293   1.356       .  S
C1289      C1290   1.421       .  A
C1290      F1291   1.355       .  S
C1295      C1296   1.435       .  A
C1295      C1300   1.399       .  A
C1295      F1302   1.356       .  S
C1296      C1297   1.434       .  A
C1297      C1298   1.396       .  A
C1297      F1304   1.352       .  S
C1298      C1299   1.391       .  A
C1298      F1303   1.359       .  S
C1299      C1300   1.391       .  A
C1300      F1301   1.358       .  S
C1305      C1306   1.400       .  A
C1305      C1310   1.403       .  A
C1305      F1312   1.358       .  S
C1306      C1307   1.392       .  A
C1307      C1308   1.388       .  A
C1307      F1314   1.359       .  S
C1308      C1309   1.424       .  A
C1308      F1313   1.348       .  S
C1309      C1310   1.425       .  A
C1310      F1311   1.358       .  S
C1315      C1316   1.430       .  A
C1315      C1320   1.395       .  A
C1315      F1322   1.360       .  S
C1316      C1317   1.424       .  A
C1317      C1318   1.398       .  A
C1317      F1324   1.354       .  S
C1318      C1319   1.403       .  A
C1318      F1323   1.358       .  S
C1319      C1320   1.400       .  A
C1320      F1321   1.358       .  S
C1325      C1326   1.430       .  A
C1325      C1330   1.390       .  A
C1325      F1332   1.359       .  S
C1326      C1327   1.419       .  A
C1327      C1328   1.392       .  A
C1327      F1334   1.341       .  S
C1328      C1329   1.409       .  A
C1328      F1333   1.355       .  S
C1329      C1330   1.415       .  A
C1330      F1331   1.356       .  S
C1335      C1336   1.395       .  A
C1335      C1340   1.398       .  A
C1335      F1342   1.359       .  S
C1336      C1337   1.397       .  A
C1337      C1338   1.403       .  A
C1337      F1344   1.358       .  S
C1338      C1339   1.426       .  A
C1338      F1343   1.357       .  S
C1339      C1340   1.429       .  A
C1340      F1341   1.355       .  S
C1345      C1346   1.398       .  A
C1345      C1350   1.397       .  A
C1345      F1352   1.358       .  S
C1346      C1347   1.405       .  A
C1347      C1348   1.399       .  A
C1347      F1354   1.358       .  S
C1348      C1349   1.418       .  A
C1348      F1353   1.358       .  S
C1349      C1350   1.428       .  A
C1350      F1351   1.355       .  S
C1355      C1356   1.402       .  A
C1355      C1360   1.396       .  A
C1355      F1362   1.358       .  S
C1356      C1357   1.404       .  A
C1357      C1358   1.405       .  A
C1357      F1364   1.358       .  S
C1358      C1359   1.421       .  A
C1358      F1363   1.355       .  S
C1359      C1360   1.423       .  A
C1360      F1361   1.356       .  S
C1365      C1370   1.396       .  A
C1365      F1372   1.358       .  S
C1366      C1367   1.406       .  A
C1367      C1368   1.400       .  A
C1367      F1374   1.358       .  S
C1368      C1369   1.417       .  A
C1368      F1373   1.358       .  S
C1370      F1371   1.356       .  S
C1375      F1382   1.357       .  S
C1376      C1377   1.428       .  A
C1377      C1378   1.398       .  A
C1377      F1384   1.354       .  S
C1378      C1379   1.396       .  A
C1378      F1383   1.359       .  S
C1379      C1380   1.396       .  A
C1385      C1386   1.403       .  A
C1385      C1390   1.404       .  A
C1385      F1392   1.358       .  S
C1386      C1387   1.403       .  A
C1387      C1388   1.400   1_556  A
C1387      F1394   1.358   1_556  S
C1388      C1389   1.423   1_554  A
C1388      F1393   1.356       .  S
C1389      C1390   1.423       .  A
C1390      F1391   1.355       .  S
C1395      C1396   1.415       .  A
C1395      C1400   1.393       .  A
C1395      F1402   1.357       .  S
C1396      C1397   1.419       .  A
C1397      C1398   1.389       .  A
C1397      F1404   1.355       .  S
C1398      C1399   1.416       .  A
C1398      F1403   1.354       .  S
C1399      C1400   1.419       .  A
C1400      F1401   1.357       .  S
C1405      C1837   1.566   1_554  S
C1405      C1844   1.572   1_554  S
C1405      C1857   1.571   1_554  S
C1405      C1633   1.561       .  S
C1406      C1573   1.573       .  S
C1406      C1583   1.566       .  S
C1406      C1593   1.568       .  S
C1406      C1630   1.562       .  S
C1407      C1530   1.597       .  S
C1407      C1543   1.567       .  S
C1407      C1550   1.574       .  S
C1407      C1560   1.589       .  S
C1408      C1500   1.558       .  S
C1408      C1510   1.564       .  S
C1408      C1523   1.557       .  S
C1408      C1563   1.558       .  S
N1409      N1410   1.323       .  A
N1409      N1415   1.315       .  A
N1410      C1417   1.356       .  A
N1411      N1412   1.323       .  A
N1411     Mn1661   2.221   1_554  S
N1412      C1418   1.355   1_665  A
N1413      N1414   1.323       .  A
N1413     Mn1672   2.209   1_554  S
N1415      N1416   1.321       .  A
N1416      C1417   1.353       .  A
C1417      C1620   1.486       .  S
C1418      C1473   1.477       .  S
N1419      N1425   1.317       .  A
N1419      N1420   1.320       .  A
N1419     Mn1449   2.202       .  S
N1420      C1428   1.349       .  A
N1421      N1422   1.318       .  A
N1421      N1423   1.317       .  A
N1421     Mn1427   2.200       .  S
N1422      C1429   1.351       .  A
N1423      N1424   1.321       .  A
N1423     Mn1449   2.202       .  S
N1424      C1429   1.355       .  A
N1425      N1426   1.323       .  A
N1425     Mn1427   2.211       .  S
N1426      C1428   1.355       .  A
Mn1427     N1645   2.221       .  S
C1428      C1613   1.470       .  S
C1429      C1553   1.480       .  S
N1430      N1431   1.323       .  A
N1430      N1436   1.316       .  A
N1430     Mn1438   2.221       .  S
N1431      C1439   1.358       .  A
N1432      N1434   1.317       .  A
N1432      N1433   1.322       .  A
N1432     Mn1450   2.206       .  S
N1433      C1440   1.354       .  A
N1434      N1435   1.317       .  A
N1434     Mn1438   2.192       .  S
N1435      C1440   1.347       .  A
N1436      N1437   1.317       .  A
N1436     Mn1450   2.183       .  S
N1437      C1439   1.348       .  A
Mn1438     N1647   2.209       .  S
C1439      C1600   1.479       .  S
C1440      C1533   1.464       .  S
N1441      N1442   1.325       .  A
N1441     Mn1449   2.229       .  S
N1443      N1444   1.318       .  A
N1443      N1445   1.315       .  A
N1444      C1453   1.352       .  A
N1445      N1446   1.321       .  A
N1446      C1453   1.352       .  A
N1447      N1448   1.323       .  A
N1447     Mn1450   2.206       .  S
C1452      C1485   1.481       .  S
C1453      C1540   1.467       .  S
N1454      N1455   1.320       .  A
N1454      N1460   1.316       .  A
N1454     Mn1483   2.201       .  S
N1455      C1462   1.355       .  A
N1456      N1458   1.317       .  A
N1456      N1457   1.322       .  A
N1456     Mn1472   2.218       .  S
N1457      C1463   1.357       .  A
N1458      N1459   1.318       .  A
N1458     Mn1483   2.190       .  S
N1459      C1463   1.349       .  A
N1460      N1461   1.316       .  A
N1460     Mn1472   2.180       .  S
N1461      C1462   1.348       .  A
C1462      C1520   1.477       .  S
C1463      C1580   1.479       .  S
N1464      N1465   1.325       .  A
N1464     Mn1494   2.221       .  S
N1466      N1467   1.324       .  A
N1466      N1468   1.315       .  A
N1467      C1474   1.356       .  A
N1468      N1469   1.319       .  A
N1469      C1474   1.352       .  A
N1470      N1471   1.322       .  A
N1470     Mn1472   2.202       .  S
N1471      C1473   1.351   1_665  A
C1474      C1590   1.483       .  S
N1475      N1476   1.320       .  A
N1475      N1481   1.313       .  A
N1476      C1484   1.355       .  A
N1477      N1478   1.324       .  A
N1477     Mn1495   2.226       .  S
N1479      N1480   1.324       .  A
N1479     Mn1483   2.213       .  S
N1481      N1482   1.316       .  A
N1482      C1484   1.351       .  A
C1484      C1513   1.479       .  S
N1486      N1487   1.319       .  A
N1486      N1492   1.315       .  A
N1486     Mn1494   2.202       .  S
N1487      C1497   1.353       .  A
N1488      N1489   1.321       .  A
N1488      N1490   1.318       .  A
N1488     Mn1495   2.214       .  S
N1489      C1498   1.351       .  A
N1490      N1491   1.322       .  A
N1490     Mn1494   2.208       .  S
N1491      C1498   1.354       .  A
N1492      N1493   1.318       .  A
N1492     Mn1495   2.187       .  S
N1493      C1497   1.352       .  A
C1497      C1503   1.480       .  S
C1498      C1570   1.472       .  S
C1499      C1500   1.419       .  A
C1499      C1504   1.395       .  A
C1499      F1506   1.355       .  S
C1500      C1501   1.423       .  A
C1501      C1502   1.396       .  A
C1501      F1508   1.356       .  S
C1502      C1503   1.403       .  A
C1502      F1507   1.358       .  S
C1503      C1504   1.403       .  A
C1504      F1505   1.358       .  S
C1509      C1510   1.427       .  A
C1509      C1514   1.398       .  A
C1509      F1516   1.356       .  S
C1510      C1511   1.421       .  A
C1511      C1512   1.391       .  A
C1511      F1518   1.354       .  S
C1512      C1513   1.401       .  A
C1512      F1517   1.358       .  S
C1513      C1514   1.401       .  A
C1514      F1515   1.358       .  S
C1519      C1520   1.401       .  A
C1519      C1524   1.392       .  A
C1519      F1526   1.358       .  S
C1520      C1521   1.406       .  A
C1521      C1522   1.397       .  A
C1521      F1528   1.358       .  S
C1522      C1523   1.418       .  A
C1522      F1527   1.356       .  S
C1523      C1524   1.421       .  A
C1524      F1525   1.355       .  S
C1529      C1530   1.435       .  A
C1529      C1534   1.399       .  A
C1529      F1536   1.356       .  S
C1530      C1531   1.434       .  A
C1531      C1532   1.396       .  A
C1531      F1538   1.352       .  S
C1532      C1533   1.391       .  A
C1532      F1537   1.359       .  S
C1533      C1534   1.391       .  A
C1534      F1535   1.358       .  S
C1539      C1540   1.400       .  A
C1539      C1544   1.403       .  A
C1539      F1546   1.358       .  S
C1540      C1541   1.392       .  A
C1541      C1542   1.388       .  A
C1541      F1548   1.359       .  S
C1542      C1543   1.424       .  A
C1542      F1547   1.348       .  S
C1543      C1544   1.425       .  A
C1544      F1545   1.358       .  S
C1549      C1550   1.430       .  A
C1549      C1554   1.395       .  A
C1549      F1556   1.360       .  S
C1550      C1551   1.424       .  A
C1551      C1552   1.398       .  A
C1551      F1558   1.354       .  S
C1552      C1553   1.403       .  A
C1552      F1557   1.358       .  S
C1553      C1554   1.400       .  A
C1554      F1555   1.358       .  S
C1559      C1560   1.430       .  A
C1559      C1564   1.390       .  A
C1559      F1566   1.359       .  S
C1560      C1561   1.419       .  A
C1561      C1562   1.392       .  A
C1561      F1568   1.341       .  S
C1562      C1563   1.409       .  A
C1562      F1567   1.355       .  S
C1563      C1564   1.415       .  A
C1564      F1565   1.356       .  S
C1569      C1570   1.395       .  A
C1569      C1574   1.398       .  A
C1569      F1576   1.359       .  S
C1570      C1571   1.397       .  A
C1571      C1572   1.403       .  A
C1571      F1578   1.358       .  S
C1572      C1573   1.426       .  A
C1572      F1577   1.357       .  S
C1573      C1574   1.429       .  A
C1574      F1575   1.355       .  S
C1579      C1580   1.398       .  A
C1579      C1584   1.397       .  A
C1579      F1586   1.358       .  S
C1580      C1581   1.405       .  A
C1581      C1582   1.399       .  A
C1581      F1588   1.358       .  S
C1582      C1583   1.418       .  A
C1582      F1587   1.358       .  S
C1583      C1584   1.428       .  A
C1584      F1585   1.355       .  S
C1589      C1590   1.402       .  A
C1589      C1594   1.396       .  A
C1589      F1596   1.358       .  S
C1590      C1591   1.404       .  A
C1591      C1592   1.405       .  A
C1591      F1598   1.358       .  S
C1592      C1593   1.421       .  A
C1592      F1597   1.355       .  S
C1593      C1594   1.423       .  A
C1594      F1595   1.356       .  S
C1599      C1834   1.397   1_554  A
C1599      C1604   1.396       .  A
C1599      F1606   1.358       .  S
C1600      C1833   1.397       .  A
C1600      C1601   1.406       .  A
C1601      C1602   1.400       .  A
C1601      F1608   1.358       .  S
C1602      C1603   1.417       .  A
C1602      F1607   1.358       .  S
C1603      C1639   1.566       .  S
C1603      C1838   1.428       .  A
C1604      C1837   1.428   1_554  A
C1604      F1605   1.356       .  S
C1609      C1844   1.427   1_554  A
C1609      C1848   1.401   1_554  A
C1609      F1616   1.357       .  S
C1610      C1639   1.572       .  S
C1610      C1843   1.427       .  A
C1610      C1611   1.428       .  A
C1611      C1612   1.398       .  A
C1611      F1618   1.354       .  S
C1612      C1613   1.396       .  A
C1612      F1617   1.359       .  S
C1613      C1614   1.396       .  A
C1614      C1843   1.401       .  A
C1614      F1849   1.358       .  S
F1615      C1848   1.358   1_554  S
C1619      C1620   1.403       .  A
C1619      C1624   1.404       .  A
C1619      F1626   1.358       .  S
C1620      C1621   1.403       .  A
C1621      C1622   1.400       .  A
C1621      F1628   1.358       .  S
C1622      C1623   1.423       .  A
C1622      F1627   1.356       .  S
C1623      C1639   1.571       .  S
C1623      C1624   1.423       .  A
C1624      F1625   1.355       .  S
C1629      C1630   1.415       .  A
C1629      C1634   1.393       .  A
C1629      F1636   1.357       .  S
C1630      C1631   1.419       .  A
C1631      C1632   1.389       .  A
C1631      F1638   1.355       .  S
C1632      C1633   1.416       .  A
C1632      F1637   1.354       .  S
C1633      C1634   1.419       .  A
C1634      F1635   1.357       .  S
C1639      C1867   1.561       .  S
C1640      C1807   1.573       .  S
C1640      C1817   1.566       .  S
C1640      C1827   1.568       .  S
C1640      C1864   1.562       .  S
C1641      C1764   1.597       .  S
C1641      C1777   1.567       .  S
C1641      C1784   1.574       .  S
C1641      C1794   1.589       .  S
C1642      C1734   1.558       .  S
C1642      C1744   1.564       .  S
C1642      C1757   1.557       .  S
C1642      C1797   1.558       .  S
N1643      N1644   1.323       .  A
N1643      N1649   1.315       .  A
N1644      C1651   1.356       .  A
N1645      N1646   1.323       .  A
N1646      C1652   1.355   1_665  A
N1647      N1648   1.323       .  A
N1649      N1650   1.321       .  A
N1650      C1651   1.353       .  A
C1651      C1854   1.486       .  S
C1652      C1707   1.477       .  S
N1653      N1659   1.317       .  A
N1653      N1654   1.320       .  A
N1653     Mn1683   2.202       .  S
N1654      C1662   1.349       .  A
N1655      N1656   1.318       .  A
N1655      N1657   1.317       .  A
N1655     Mn1661   2.200       .  S
N1656      C1663   1.351       .  A
N1657      N1658   1.321       .  A
N1657     Mn1683   2.202       .  S
N1658      C1663   1.355       .  A
N1659      N1660   1.323       .  A
N1659     Mn1661   2.211       .  S
N1660      C1662   1.355       .  A
C1662      C1847   1.470       .  S
C1663      C1787   1.480       .  S
N1664      N1665   1.323       .  A
N1664      N1670   1.316       .  A
N1664     Mn1672   2.221       .  S
N1665      C1673   1.358       .  A
N1666      N1668   1.317       .  A
N1666      N1667   1.322       .  A
N1666     Mn1684   2.206       .  S
N1667      C1674   1.354       .  A
N1668      N1669   1.317       .  A
N1668     Mn1672   2.192       .  S
N1669      C1674   1.347       .  A
N1670      N1671   1.317       .  A
N1670     Mn1684   2.183       .  S
N1671      C1673   1.348       .  A
C1673      C1834   1.479       .  S
C1674      C1767   1.464       .  S
N1675      N1676   1.325       .  A
N1675     Mn1683   2.229       .  S
N1677      N1678   1.318       .  A
N1677      N1679   1.315       .  A
N1678      C1687   1.352       .  A
N1679      N1680   1.321       .  A
N1680      C1687   1.352       .  A
N1681      N1682   1.323       .  A
N1681     Mn1684   2.206       .  S
C1686      C1719   1.481       .  S
C1687      C1774   1.467       .  S
N1688      N1689   1.320       .  A
N1688      N1694   1.316       .  A
N1688     Mn1717   2.201       .  S
N1689      C1696   1.355       .  A
N1690      N1692   1.317       .  A
N1690      N1691   1.322       .  A
N1690     Mn1706   2.218       .  S
N1691      C1697   1.357       .  A
N1692      N1693   1.318       .  A
N1692     Mn1717   2.190       .  S
N1693      C1697   1.349       .  A
N1694      N1695   1.316       .  A
N1694     Mn1706   2.180       .  S
N1695      C1696   1.348       .  A
C1696      C1754   1.477       .  S
C1697      C1814   1.479       .  S
N1698      N1699   1.325       .  A
N1698     Mn1728   2.221       .  S
N1700      N1701   1.324       .  A
N1700      N1702   1.315       .  A
N1701      C1708   1.356       .  A
N1702      N1703   1.319       .  A
N1703      C1708   1.352       .  A
N1704      N1705   1.322       .  A
N1704     Mn1706   2.202       .  S
N1705      C1707   1.351   1_665  A
C1708      C1824   1.483       .  S
N1709      N1710   1.320       .  A
N1709      N1715   1.313       .  A
N1710      C1718   1.355       .  A
N1711      N1712   1.324       .  A
N1711     Mn1729   2.226       .  S
N1713      N1714   1.324       .  A
N1713     Mn1717   2.213       .  S
N1715      N1716   1.316       .  A
N1716      C1718   1.351       .  A
C1718      C1747   1.479       .  S
N1720      N1721   1.319       .  A
N1720      N1726   1.315       .  A
N1720     Mn1728   2.202       .  S
N1721      C1731   1.353       .  A
N1722      N1723   1.321       .  A
N1722      N1724   1.318       .  A
N1722     Mn1729   2.214       .  S
N1723      C1732   1.351       .  A
N1724      N1725   1.322       .  A
N1724     Mn1728   2.208       .  S
N1725      C1732   1.354       .  A
N1726      N1727   1.318       .  A
N1726     Mn1729   2.187       .  S
N1727      C1731   1.352       .  A
C1731      C1737   1.480       .  S
C1732      C1804   1.472       .  S
C1733      C1734   1.419       .  A
C1733      C1738   1.395       .  A
C1733      F1740   1.355       .  S
C1734      C1735   1.423       .  A
C1735      C1736   1.396       .  A
C1735      F1742   1.356       .  S
C1736      C1737   1.403       .  A
C1736      F1741   1.358       .  S
C1737      C1738   1.403       .  A
C1738      F1739   1.358       .  S
C1743      C1744   1.427       .  A
C1743      C1748   1.398       .  A
C1743      F1750   1.356       .  S
C1744      C1745   1.421       .  A
C1745      C1746   1.391       .  A
C1745      F1752   1.354       .  S
C1746      C1747   1.401       .  A
C1746      F1751   1.358       .  S
C1747      C1748   1.401       .  A
C1748      F1749   1.358       .  S
C1753      C1754   1.401       .  A
C1753      C1758   1.392       .  A
C1753      F1760   1.358       .  S
C1754      C1755   1.406       .  A
C1755      C1756   1.397       .  A
C1755      F1762   1.358       .  S
C1756      C1757   1.418       .  A
C1756      F1761   1.356       .  S
C1757      C1758   1.421       .  A
C1758      F1759   1.355       .  S
C1763      C1764   1.435       .  A
C1763      C1768   1.399       .  A
C1763      F1770   1.356       .  S
C1764      C1765   1.434       .  A
C1765      C1766   1.396       .  A
C1765      F1772   1.352       .  S
C1766      C1767   1.391       .  A
C1766      F1771   1.359       .  S
C1767      C1768   1.391       .  A
C1768      F1769   1.358       .  S
C1773      C1774   1.400       .  A
C1773      C1778   1.403       .  A
C1773      F1780   1.358       .  S
C1774      C1775   1.392       .  A
C1775      C1776   1.388       .  A
C1775      F1782   1.359       .  S
C1776      C1777   1.424       .  A
C1776      F1781   1.348       .  S
C1777      C1778   1.425       .  A
C1778      F1779   1.358       .  S
C1783      C1784   1.430       .  A
C1783      C1788   1.395       .  A
C1783      F1790   1.360       .  S
C1784      C1785   1.424       .  A
C1785      C1786   1.398       .  A
C1785      F1792   1.354       .  S
C1786      C1787   1.403       .  A
C1786      F1791   1.358       .  S
C1787      C1788   1.400       .  A
C1788      F1789   1.358       .  S
C1793      C1794   1.430       .  A
C1793      C1798   1.390       .  A
C1793      F1800   1.359       .  S
C1794      C1795   1.419       .  A
C1795      C1796   1.392       .  A
C1795      F1802   1.341       .  S
C1796      C1797   1.409       .  A
C1796      F1801   1.355       .  S
C1797      C1798   1.415       .  A
C1798      F1799   1.356       .  S
C1803      C1804   1.395       .  A
C1803      C1808   1.398       .  A
C1803      F1810   1.359       .  S
C1804      C1805   1.397       .  A
C1805      C1806   1.403       .  A
C1805      F1812   1.358       .  S
C1806      C1807   1.426       .  A
C1806      F1811   1.357       .  S
C1807      C1808   1.429       .  A
C1808      F1809   1.355       .  S
C1813      C1814   1.398       .  A
C1813      C1818   1.397       .  A
C1813      F1820   1.358       .  S
C1814      C1815   1.405       .  A
C1815      C1816   1.399       .  A
C1815      F1822   1.358       .  S
C1816      C1817   1.418       .  A
C1816      F1821   1.358       .  S
C1817      C1818   1.428       .  A
C1818      F1819   1.355       .  S
C1823      C1824   1.402       .  A
C1823      C1828   1.396       .  A
C1823      F1830   1.358       .  S
C1824      C1825   1.404       .  A
C1825      C1826   1.405       .  A
C1825      F1832   1.358       .  S
C1826      C1827   1.421       .  A
C1826      F1831   1.355       .  S
C1827      C1828   1.423       .  A
C1828      F1829   1.356       .  S
C1833      C1838   1.396       .  A
C1833      F1840   1.358       .  S
C1834      C1835   1.406       .  A
C1835      C1836   1.400       .  A
C1835      F1842   1.358       .  S
C1836      C1837   1.417       .  A
C1836      F1841   1.358       .  S
C1838      F1839   1.356       .  S
C1843      F1850   1.357       .  S
C1844      C1845   1.428       .  A
C1845      C1846   1.398       .  A
C1845      F1852   1.354       .  S
C1846      C1847   1.396       .  A
C1846      F1851   1.359       .  S
C1847      C1848   1.396       .  A
C1853      C1854   1.403       .  A
C1853      C1858   1.404       .  A
C1853      F1860   1.358       .  S
C1854      C1855   1.403       .  A
C1855      C1856   1.400   1_556  A
C1855      F1862   1.358   1_556  S
C1856      C1857   1.423   1_554  A
C1856      F1861   1.356       .  S
C1857      C1858   1.423       .  A
C1858      F1859   1.355       .  S
C1863      C1864   1.415       .  A
C1863      C1868   1.393       .  A
C1863      F1870   1.357       .  S
C1864      C1865   1.419       .  A
C1865      C1866   1.389       .  A
C1865      F1872   1.355       .  S
C1866      C1867   1.416       .  A
C1866      F1871   1.354       .  S
C1867      C1868   1.419       .  A
C1868      F1869   1.357       .  S
