geometry optimzed in LAMMPS
_audit_creation_date              2020-11-30 
_audit_creation_method            'lammps2cif' 
_symmetry_space_group_name_H-M    'P1' 
_symmetry_Int_Tables_number       1 
_symmetry_cell_setting            triclinic 
loop_ 
_symmetry_equiv_pos_as_xyz 
  x,y,z 
_cell_length_a                    33.9751155 
_cell_length_b                    41.278249420177254 
_cell_length_c                    26.571258797678663 
_cell_angle_alpha                 89.42834551648339 
_cell_angle_beta                  90.88206203236346 
_cell_angle_gamma                 89.09121963751072 
loop_ 
_atom_site_label 
_atom_site_type_symbol 
_atom_site_fract_x 
_atom_site_fract_y 
_atom_site_fract_z 
_atom_site_charge 
O1          O  0.48050941  0.04345030  0.94616582    -0.86700
C2          C  0.43444659  0.45803719  0.95505014     0.89400
Mg3        Mg  0.02518272  0.05587856  0.91805441     1.58100
O4          O  0.45219958  0.49973043  0.06802521    -0.86400
O5          O  0.44305665  0.05883040  0.00802696    -0.73700
C6          C  0.15644978  0.45627608  0.05878698     0.94400
O7          O  0.50339920  0.47927038  0.87950220    -0.73500
O8          O  0.15740073  0.47367525  0.01905479    -0.81100
Mg9        Mg  0.44422977  0.01041906  0.90401714     1.58000
C10         C  0.02863061  0.44183498  0.18581910     0.94300
O11         O  0.38856799  0.04228417  0.91191533    -0.79300
H12         H  0.45651931  0.03673986  0.12110752    -0.04700
C13         C  0.05148305  0.43283305  0.02150753     0.89300
O14         O  0.04578586  0.06434066  0.99904284    -0.73800
O15         O  0.43476721  0.48789345  0.95765219    -0.86600
O16         O  0.47549623  0.44775578  0.16032779    -0.79400
C17         C  0.36530257  0.45206190  0.07163245     0.94400
C18         C  0.35881140  0.04467391  0.94037261     0.94300
Mg19       Mg  0.06893501  0.48374864  0.09964239     1.58000
O20         O  0.12613871  0.45520348  0.08635268    -0.79300
O21         O  0.99845662  0.01643223  0.10778801    -0.73600
O22         O  0.36534568  0.47510343  0.03937187    -0.79400
O23         O  0.45589695  0.03584777  0.83119312    -0.81100
O24         O  0.12680340  0.03951878  0.93995700    -0.79400
C25         C  0.47464872  0.01748543  0.10607755     0.88700
O26         O  0.06581075  0.01693020  0.02699793    -0.86600
O27         O  0.03627200  0.45184920  0.05151565    -0.86700
O28         O  0.07560825  0.44238721  0.98861767    -0.73700
Mg29       Mg  0.40982278  0.01337505  0.03233381     1.58000
O30         O  0.39676618  0.44179126  0.09342885    -0.81100
H31         H  0.47771762  0.08944554  0.96896381    -0.04800
O32         O  0.04335054  0.00547692  0.91910125    -0.86400
H33         H  0.06079127  0.46835827  0.88196889    -0.04700
H34         H  0.07139551  0.05706914  0.06773464    -0.04800
C35         C  0.04061706  0.48561573  0.89844442     0.88700
C36         C  0.46739101  0.06495655  0.97356270     0.89300
C37         C  0.06208513  0.04645105  0.03256689     0.89300
H38         H  0.04334943  0.40762720  0.02250393    -0.04800
O39         O  0.44419047  0.44009171  0.99242674    -0.73800
Mg40       Mg  0.10428277  0.49151225  0.97232626     1.58000
H41         H  0.42670309  0.44690994  0.91967186    -0.04800
C42         C  0.48679893  0.04798831  0.81327757     0.94300
O43         O  0.08549686  0.07089370  0.89410544    -0.81100
C44         C  0.11993939  0.06348356  0.91012894     0.94400
O45         O  0.35832243  0.03159978  0.98390319    -0.81100
Mg46       Mg  0.46057025  0.44811480  0.07561794     1.58200
O47         O  0.00630513  0.05595604  0.83570786    -0.79400
O48         O  0.06044779  0.45370368  0.17018638    -0.81100
C49         C  0.49841320  0.09155284  0.65577090     0.47100
H50         H  0.99662212  0.06708217  0.65397495    -0.01900
C51         C  0.49993516  0.15451896  0.64705181     0.47200
H52         H  0.50053901  0.18135959  0.64405239    -0.01900
C53         C  0.49095235  0.10920613  0.70528480    -0.15600
C54         C  0.03446195  0.10714891  0.62840714    -0.15300
C55         C  0.46741762  0.10543355  0.61854253    -0.15700
C56         C  0.99241137  0.14468201  0.69588871    -0.15700
C57         C  0.03479275  0.14033592  0.62378549    -0.15300
C58         C  0.46851367  0.13859618  0.61317308    -0.15600
O59         O  0.01557646  0.29795869  0.04876877    -0.86700
C60         C  0.07300813  0.21219812  0.05516504     0.89400
Mg61       Mg  0.45753447  0.29630604  0.07856912     1.58100
O62         O  0.05304409  0.24455025  0.93425668    -0.86400
O63         O  0.05769281  0.31175048  0.99166734    -0.73700
C64         C  0.36188853  0.19711257  0.92991007     0.94400
O65         O  0.99740361  0.23641827  0.11836168    -0.73500
O66         O  0.36010113  0.21120937  0.97197467    -0.81100
Mg67       Mg  0.04861144  0.27082549  0.10445088     1.58000
C68         C  0.50375636  0.19484217  0.81531431     0.94300
O69         O  0.10022550  0.30417633  0.09857634    -0.79300
H70         H  0.05593053  0.28023195  0.88306761    -0.04700
C71         C  0.47259281  0.17787943  0.97379404     0.89300
O72         O  0.44010130  0.30487801  0.99543612    -0.73800
O73         O  0.07070189  0.24148576  0.04531232    -0.86600
O74         O  0.03607730  0.18711303  0.85419190    -0.79400
C75         C  0.14448890  0.19985830  0.94015202     0.94400
C76         C  0.13244565  0.30830616  0.07606930     0.94300
Mg77       Mg  0.44950710  0.22961446  0.89874035     1.58000
O78         O  0.39328106  0.19679362  0.90370349    -0.79300
O79         O  0.50104824  0.26439291  0.88495880    -0.73600
O80         O  0.14357193  0.22620856  0.96504955    -0.79400
O81         O  0.02665865  0.30183274  0.16866691    -0.81100
O82         O  0.36419120  0.26961339  0.04508644    -0.79400
C83         C  0.03838680  0.26147483  0.89982321     0.88700
O84         O  0.43241257  0.25666709  0.96337808    -0.86600
O85         O  0.48601889  0.19973527  0.94735868    -0.86700
O86         O  0.44504554  0.18338686  0.00450251    -0.73700
Mg87       Mg  0.09713611  0.26683858  0.98259802     1.58000
O88         O  0.11317099  0.18595692  0.92537057    -0.81100
H89         H  0.01646521  0.34263370  0.01911809    -0.04800
O90         O  0.45372896  0.24488259  0.07257329    -0.86400
H91         H  0.45184957  0.20479676  0.11537198    -0.04700
H92         H  0.42214695  0.29729738  0.92335624    -0.04800
C93         C  0.46902569  0.22500069  0.10249092     0.88700
C94         C  0.02948102  0.31856539  0.02050307     0.89300
C95         C  0.43074174  0.28652852  0.95919553     0.89300
H96         H  0.48499127  0.15365961  0.97133406    -0.04800
O97         O  0.06330631  0.19100679  0.02323836    -0.73800
Mg98       Mg  0.40768417  0.22866920  0.02343009     1.58000
H99         H  0.08173415  0.20448669  0.09276639    -0.04800
C100        C  0.49968850  0.29598076  0.19162533     0.94300
O101        O  0.39535738  0.30189115  0.09810902    -0.81100
C102        C  0.36415729  0.29265084  0.07647003     0.94400
O103        O  0.14120586  0.29295750  0.03595587    -0.81100
Mg104      Mg  0.04772332  0.19244062  0.93921902     1.58200
O105        O  0.46955164  0.29251313  0.16356568    -0.79400
O106        O  0.46913774  0.20154942  0.83030557    -0.81100
C107        C  0.49174670  0.40539570  0.34536696     0.47100
H108        H  0.99032443  0.43442577  0.34160147    -0.01900
C109        C  0.49841827  0.34244627  0.35295509     0.47200
H110        H  0.50143205  0.31563779  0.35559889    -0.01900
C111        C  0.49784014  0.38866551  0.29486312    -0.15600
C112        C  0.03109579  0.39799554  0.37739899    -0.15300
C113        C  0.45538124  0.38901530  0.36704738    -0.15700
C114        C  0.00400288  0.35703132  0.30227164    -0.15700
C115        C  0.03620858  0.36516850  0.38286289    -0.15300
C116        C  0.45859675  0.35591105  0.37041418    -0.15600
O117        O  0.26616291  0.05169380  0.54886681    -0.86700
C118        C  0.32489950  0.46509676  0.52932419     0.89400
Mg119      Mg  0.20695892  0.05449965  0.57556891     1.58100
O120        O  0.29105048  0.50074889  0.41583563    -0.86400
O121        O  0.29713639  0.06545637  0.48023913    -0.73700
C122        C  0.10838546  0.44537272  0.45039073     0.94400
O123        O  0.26239447  0.48844710  0.61151554    -0.73500
O124        O  0.10975310  0.45814540  0.49370315    -0.81100
Mg125      Mg  0.30754624  0.02198478  0.59183758     1.58000
C126        C  0.23111483  0.44497992  0.31127185     0.94300
O127        O  0.36026578  0.05592735  0.57754518    -0.79300
H128        H  0.28980838  0.03753920  0.36915586    -0.04700
C129        C  0.21972241  0.43260773  0.47723324     0.89300
O130        O  0.18275360  0.05807148  0.49447513    -0.73800
O131        O  0.32162933  0.49462027  0.52191123    -0.86600
O132        O  0.26357891  0.44524961  0.33602421    -0.79400
C133        C  0.38033315  0.45369778  0.40615308     0.94400
C134        C  0.38697712  0.06059130  0.54494489     0.94300
Mg135      Mg  0.18728170  0.48285351  0.40149038     1.58000
O136        O  0.13469805  0.45013460  0.41748583    -0.79300
O137        O  0.23655446  0.01703068  0.37853499    -0.73600
O138        O  0.38139347  0.47905240  0.43284923    -0.79400
O139        O  0.29367900  0.04856935  0.66418839    -0.81100
O140        O  0.11313529  0.02134085  0.55495585    -0.79400
C141        C  0.27326059  0.01874606  0.38744640     0.88700
O142        O  0.17591726  0.00847942  0.46727361    -0.86600
O143        O  0.22813717  0.45321816  0.44526147    -0.86700
O144        O  0.19766374  0.43925138  0.51393172    -0.73700
Mg145      Mg  0.33708034  0.02241491  0.45943919     1.58000
O146        O  0.34816743  0.44173605  0.39049055    -0.81100
H147        H  0.26056453  0.09580567  0.51763468    -0.04800
O148        O  0.20467001  0.00247709  0.57512255    -0.86400
H149        H  0.20932092  0.46807060  0.62308751    -0.04700
H150        H  0.15962772  0.04727373  0.42595548    -0.04800
C151        C  0.22551372  0.48666201  0.60378636     0.88700
C152        C  0.27438095  0.07204829  0.51636021     0.89300
C153        C  0.17177396  0.03808948  0.46123257     0.89300
H154        H  0.23289293  0.40866920  0.47506502    -0.04800
O155        O  0.31203918  0.44482592  0.49773603    -0.73800
Mg156      Mg  0.15958574  0.48325415  0.53406319     1.58000
H157        H  0.33772669  0.45632476  0.56446873    -0.04800
C158        C  0.26125190  0.05751397  0.68354069     0.94300
O159        O  0.14348399  0.05863797  0.60098153    -0.81100
C160        C  0.11218020  0.04610230  0.58322410     0.94400
O161        O  0.38577621  0.04778450  0.50164440    -0.81100
Mg162      Mg  0.28632427  0.44857127  0.41759612     1.58200
O163        O  0.22869969  0.05739561  0.65873912    -0.79400
O164        O  0.19894779  0.45500341  0.32988277    -0.81100
C165        C  0.25872740  0.34185120  0.14837376     0.47100
H166        H  0.26049248  0.31495866  0.14925987    -0.01900
C167        C  0.25463659  0.40510071  0.14785512     0.47200
H168        H  0.25326993  0.43200655  0.14824636    -0.01900
C169        C  0.25714863  0.35674135  0.20118124    -0.15600
C170        C  0.29408631  0.35799355  0.12434941    -0.15300
C171        C  0.22310584  0.35569190  0.11902891    -0.15700
C172        C  0.25469579  0.38988798  0.20077219    -0.15700
C173        C  0.29237017  0.39123927  0.12467870    -0.15300
C174        C  0.22052551  0.38899977  0.11914830    -0.15600
O175        O  0.22846571  0.30105697  0.45450162    -0.86700
C176        C  0.17691408  0.21331046  0.47008706     0.89400
Mg177      Mg  0.28841600  0.30515538  0.43053176     1.58100
O178        O  0.19939929  0.25079446  0.58457300    -0.86400
O179        O  0.19083948  0.31419958  0.51775387    -0.73700
C180        C  0.38746753  0.20135829  0.58132830     0.94400
O181        O  0.24339344  0.23586840  0.39277194    -0.73500
O182        O  0.38943455  0.21156883  0.53597264    -0.81100
Mg183      Mg  0.19145313  0.27048447  0.41000587     1.58000
C184        C  0.25441768  0.19981434  0.69941798     0.94300
O185        O  0.13691810  0.30415992  0.41930670    -0.79300
H186        H  0.19327120  0.28901209  0.62944754    -0.04700
C187        C  0.27974184  0.18360875  0.53848398     0.89300
O188        O  0.30948185  0.31140631  0.51229265    -0.73800
O189        O  0.17827877  0.24294642  0.47577998    -0.86600
O190        O  0.22374673  0.19743792  0.67141477    -0.79400
C191        C  0.11118858  0.20413031  0.58731478     0.94400
C192        C  0.10657328  0.30479981  0.44701386     0.94300
Mg193      Mg  0.30164587  0.23762557  0.61180842     1.58000
O194        O  0.35770216  0.20689791  0.60849481    -0.79300
O195        O  0.24908667  0.27123140  0.62596978    -0.73600
O196        O  0.11153180  0.22927033  0.55934703    -0.79400
O197        O  0.20498923  0.29783062  0.33891698    -0.81100
O198        O  0.38400808  0.27462800  0.46029188    -0.79400
C199        C  0.21276391  0.27064904  0.61451184     0.88700
O200        O  0.31632656  0.26259877  0.54416622    -0.86600
O201        O  0.26698310  0.20467708  0.56699443    -0.86700
O202        O  0.30442697  0.18994820  0.50453159    -0.73700
Mg203      Mg  0.15372974  0.26950757  0.53708504     1.58000
O204        O  0.14267341  0.19167157  0.60639415    -0.81100
H205        H  0.22807783  0.34540182  0.48410601    -0.04800
O206        O  0.29477213  0.25313237  0.43506549    -0.86400
H207        H  0.29787747  0.21516764  0.38904684    -0.04700
H208        H  0.33012035  0.30211665  0.58311081    -0.04800
C209        C  0.27976996  0.23418857  0.40478541     0.88700
C210        C  0.21621528  0.32126849  0.48483896     0.89300
C211        C  0.31956125  0.29222833  0.54797746     0.89300
H212        H  0.26828978  0.15936151  0.54118388    -0.04800
O213        O  0.18795452  0.19360320  0.50463035    -0.73800
Mg214      Mg  0.34121723  0.23406917  0.48421443     1.58000
H215        H  0.16742169  0.20394278  0.43411392    -0.04800
C216        C  0.23706643  0.30709486  0.32008697     0.94300
O217        O  0.35239220  0.30951058  0.40839483    -0.81100
C218        C  0.38407286  0.29809728  0.42862044     0.94400
O219        O  0.10515563  0.28963173  0.48852362    -0.81100
Mg220      Mg  0.20686992  0.19893001  0.58728475     1.58200
O221        O  0.26941053  0.30678922  0.34547042    -0.79400
O222        O  0.28622937  0.21178518  0.68370424    -0.81100
C223        C  0.24930733  0.15247684  0.85866231     0.47100
H224        H  0.24909281  0.17928836  0.86044213    -0.01900
C225        C  0.25058791  0.08940087  0.85198539     0.47200
H226        H  0.25111809  0.06255072  0.84907971    -0.01900
C227        C  0.23901975  0.13992262  0.80576204    -0.15600
C228        C  0.28985344  0.13664287  0.87139656    -0.15300
C229        C  0.21911716  0.13579254  0.89304838    -0.15700
C230        C  0.24016281  0.10678936  0.80206585    -0.15700
C231        C  0.28992854  0.10358391  0.86877290    -0.15300
C232        C  0.22012377  0.10245214  0.88891702    -0.15600
C233        C  0.23082862  0.16132609  0.76184881    -0.14800
C234        C  0.25446802  0.18594323  0.75064704    -0.29900
H235        H  0.20911991  0.15358535  0.73425280     0.14300
H236        H  0.27844716  0.19196640  0.77625996     0.14800
C237        C  0.26386006  0.33774934  0.24828880    -0.14800
C238        C  0.23541885  0.31958355  0.26764719    -0.29900
H239        H  0.29007999  0.34268550  0.27064931     0.14300
H240        H  0.20815028  0.31684106  0.24625341     0.14800
C241        C  0.25796681  0.40908711  0.24725204    -0.14800
C242        C  0.23045571  0.43094834  0.26035347    -0.29900
H243        H  0.28130604  0.40230856  0.27391144     0.14300
H244        H  0.20520351  0.43572669  0.23562224     0.14800
C245        C  0.26217869  0.06931261  0.73601632    -0.14800
C246        C  0.23446288  0.08963386  0.75361357    -0.29900
H247        H  0.28836334  0.06410564  0.75889331     0.14300
H248        H  0.20986978  0.09701393  0.72932120     0.14800
C249        C  0.07272480  0.34960434  0.40246112    -0.14800
C250        C  0.07110892  0.32259783  0.43027990    -0.29900
H251        H  0.10091820  0.36028168  0.39391704     0.14300
H252        H  0.04277571  0.31364805  0.44223716     0.14800
C253        C  0.42386217  0.33545004  0.37906643    -0.14800
C254        C  0.42211051  0.31303781  0.41580753    -0.29900
H255        H  0.39754147  0.34124552  0.35688040     0.14300
H256        H  0.44822711  0.30701922  0.43832676     0.14800
C257        C  0.41838428  0.40693768  0.37756107    -0.14800
C258        C  0.41775640  0.43752292  0.39383164    -0.29900
H259        H  0.39077363  0.39427647  0.37398472     0.14300
H260        H  0.44501495  0.45012633  0.40126312     0.14800
C261        C  0.06127686  0.42177449  0.39118581    -0.14800
C262        C  0.07560941  0.42384872  0.43825449    -0.29900
H263        H  0.07147458  0.43805977  0.36196105     0.14300
H264        H  0.06292950  0.40952377  0.46828763     0.14800
C265        C  0.18295499  0.18544687  0.92544198    -0.14800
C266        C  0.18681254  0.15315912  0.92034149    -0.29900
H267        H  0.20668294  0.20150504  0.91576745     0.14300
H268        H  0.16318387  0.13875718  0.93515969     0.14800
C269        C  0.32567977  0.18108607  0.91225292    -0.14800
C270        C  0.32623754  0.15497254  0.88294919    -0.29900
H271        H  0.29789209  0.18920016  0.92791522     0.14300
H272        H  0.35438193  0.14517506  0.87089891     0.14800
C273        C  0.15925255  0.33163425  0.09977610    -0.14800
C274        C  0.19735359  0.33412828  0.08925680    -0.29900
H275        H  0.14742670  0.34605089  0.13023933     0.14300
H276        H  0.21082647  0.31779008  0.06251474     0.14800
C277        C  0.32731701  0.30985307  0.08822303    -0.14800
C278        C  0.32907257  0.33941977  0.10862459    -0.29900
H279        H  0.29924650  0.29886208  0.07937680     0.14300
H280        H  0.35752647  0.35060386  0.11351127     0.14800
C281        C  0.49382177  0.30918296  0.24218954    -0.14800
C282        C  0.01194289  0.33493020  0.26016409    -0.29900
H283        H  0.95503230  0.34036896  0.22950793     0.14300
H284        H  0.53565561  0.34515349  0.23059756     0.14800
C285        C  0.07148174  0.15786638  0.61146193    -0.14800
C286        C  0.07291459  0.18908386  0.59761146    -0.29900
H287        H  0.09910619  0.14439539  0.61301286     0.14700
H288        H  0.04609181  0.20330462  0.59161717     0.14800
C289        C  0.43831635  0.15794846  0.58449227    -0.14800
C290        C  0.42086504  0.18374495  0.60533528    -0.29900
H291        H  0.42804221  0.14955125  0.54808540     0.14300
H292        H  0.42823819  0.18991140  0.64398308     0.14800
C293        C  0.43282147  0.08574741  0.60487028    -0.14800
C294        C  0.42069790  0.08142680  0.55725073    -0.29900
H295        H  0.41863893  0.07271744  0.63515863     0.14300
H296        H  0.43718279  0.09198032  0.52662169     0.14800
C297        C  0.07348082  0.06135440  0.59400285    -0.14800
C298        C  0.07071406  0.08688660  0.62455105    -0.29900
H299        H  0.04749773  0.05316460  0.57376959     0.14300
H300        H  0.09680297  0.09488156  0.64466708     0.14800
C301        C  0.98668123  0.16675874  0.73874190    -0.14800
C302        C  0.50938155  0.18176136  0.76446811    -0.29900
H303        H  0.45382163  0.16014851  0.76165083     0.14300
H304        H  0.04332003  0.15819786  0.76901034     0.14800
C305        C  0.32365095  0.06307584  0.92253743    -0.14800
C306        C  0.32451594  0.08305234  0.88243790    -0.29900
H307        H  0.29685937  0.06143638  0.94421762     0.14300
H308        H  0.35172278  0.08662709  0.86233140     0.14800
C309        C  0.15227915  0.08384613  0.89269180    -0.14800
C310        C  0.18975328  0.08060877  0.90893994    -0.29900
H311        H  0.14476808  0.10293784  0.86551521     0.14300
H312        H  0.19873779  0.06076799  0.93389420     0.14800
C313        C  0.49221851  0.09283217  0.75514204    -0.14800
C314        C  0.48466270  0.06140462  0.76214337    -0.29900
H315        H  0.00646806  0.10616664  0.78140032     0.14300
H316        H  0.47308552  0.04669591  0.73190512     0.14800
C317        C  0.32742505  0.41099154  0.11552396    -0.14800
C318        C  0.32773705  0.43628674  0.08355399    -0.29900
H319        H  0.35465292  0.40299195  0.13397036     0.14300
H320        H  0.30078609  0.44420285  0.06425917     0.14800
C321        C  0.19139269  0.43680471  0.07417230    -0.14800
C322        C  0.18708699  0.40789534  0.09684980    -0.29900
H323        H  0.22052637  0.44597498  0.06661879     0.14300
H324        H  0.15775182  0.39820795  0.10024016     0.14800
C325        C  0.49528867  0.40602862  0.24587974    -0.14800
C326        C  0.50501753  0.43717910  0.24007519    -0.29900
H327        H  0.48638328  0.39233587  0.21296137     0.14300
H328        H  0.04950129  0.43430288  0.26455487     0.14800
O329        O  0.48560141  0.54542299  0.93671273    -0.86700
C330        C  0.43081822  0.95530215  0.96941588     0.89400
Mg331      Mg  0.03862190  0.55731019  0.92833931     1.58100
O332        O  0.45942966  0.99749456  0.07770511    -0.86400
O333        O  0.44447141  0.56055150  0.99510404    -0.73700
C334        C  0.14621151  0.96272657  0.05690792     0.94400
O335        O  0.49661101  0.97708035  0.88660625    -0.73500
O336        O  0.14705845  0.97804257  0.01502475    -0.81100
Mg337      Mg  0.45062805  0.51429910  0.89102839     1.58000
C338        C  0.01611489  0.94761180  0.18086250     0.94300
O339        O  0.39478153  0.54764755  0.89453825    -0.79300
H340        H  0.44389178  0.53944394  0.10915419    -0.04700
C341        C  0.04358524  0.93488409  0.01845626     0.89300
O342        O  0.05971646  0.56249468  0.01025218    -0.73800
O343        O  0.43315569  0.98505717  0.97216417    -0.86600
O344        O  0.48778353  0.94855580  0.16624691    -0.79400
C345        C  0.37371443  0.95065408  0.09568397     0.94400
C346        C  0.36309087  0.54794727  0.91982986     0.94300
Mg347      Mg  0.05650946  0.98889450  0.09279769     1.58000
O348        O  0.11563743  0.96237931  0.08412091    -0.79300
O349        O  0.01320230  0.51287800  0.12009611    -0.73600
O350        O  0.37072507  0.97179748  0.06048804    -0.79400
O351        O  0.46813343  0.54187294  0.82068543    -0.81100
O352        O  0.13752893  0.53816323  0.95449350    -0.79400
C353        C  0.46414594  0.52072965  0.09703759     0.88700
O354        O  0.07711932  0.51371250  0.03573077    -0.86600
O355        O  0.02675908  0.95443615  0.04608301    -0.86700
O356        O  0.06768122  0.94409536  0.98542021    -0.73700
Mg357      Mg  0.40758333  0.51578657  0.01571110     1.58000
O358        O  0.40651599  0.94133351  0.11436142    -0.81100
H359        H  0.48294631  0.59092119  0.96178587    -0.04800
O360        O  0.05393789  0.50636030  0.92723930    -0.86400
H361        H  0.05331500  0.96748878  0.87472028    -0.04700
H362        H  0.08390477  0.55259207  0.07908197    -0.04800
C363        C  0.03187808  0.98413927  0.89010940     0.88700
C364        C  0.47151296  0.56666710  0.96392510     0.89300
C365        C  0.07453482  0.54317567  0.04309357     0.89300
H366        H  0.03681634  0.90944955  0.02156918    -0.04800
O367        O  0.44294770  0.93686066  0.00506211    -0.73800
Mg368      Mg  0.09420715  0.99328095  0.96530955     1.58000
H369        H  0.41916278  0.94471371  0.93536694    -0.04800
C370        C  0.50218424  0.54835442  0.80433960     0.94300
O371        O  0.10066535  0.57191295  0.90650472    -0.81100
C372        C  0.13335972  0.56366145  0.92749626     0.94400
O373        O  0.36040832  0.53343268  0.96186973    -0.81100
Mg374      Mg  0.46720995  0.94603257  0.08478087     1.58200
O375        O  0.01820181  0.55883561  0.84478649    -0.79400
O376        O  0.04724313  0.96090045  0.16562318    -0.81100
C377        C  0.49613459  0.59457345  0.63860159     0.47100
H378        H  0.00232244  0.56704953  0.66052529    -0.01900
C379        C  0.49871068  0.65703086  0.65206812     0.47200
H380        H  0.49957479  0.68363297  0.65788838    -0.01900
C381        C  0.48730648  0.60498961  0.69269484    -0.15600
C382        C  0.03945111  0.60809012  0.63612240    -0.15300
C383        C  0.46548116  0.61395228  0.60656081    -0.15700
C384        C  0.99219957  0.64488176  0.69961726    -0.15700
C385        C  0.03864497  0.64119454  0.63088109    -0.15300
C386        C  0.46717107  0.64688353  0.61378535    -0.15600
O387        O  0.02311157  0.79729417  0.05452293    -0.86700
C388        C  0.08135455  0.71101333  0.05037445     0.89400
Mg389      Mg  0.46244090  0.80647959  0.06943611     1.58100
O390        O  0.05049099  0.74315212  0.93334929    -0.86400
O391        O  0.05858160  0.80982515  0.98934370    -0.73700
C392        C  0.36032956  0.69962042  0.93724163     0.94400
O393        O  0.01483661  0.73536215  0.12659252    -0.73500
O394        O  0.35917181  0.71446911  0.97888651    -0.81100
Mg395      Mg  0.06347012  0.77003251  0.10254896     1.58000
C396        C  0.49741883  0.68964488  0.81712291     0.94300
O397        O  0.11615214  0.80370646  0.08737418    -0.79300
H398        H  0.04952131  0.77942045  0.88287957    -0.04700
C399        C  0.46988616  0.67984313  0.98113836     0.89300
O400        O  0.44391511  0.80896471  0.98607484    -0.73800
O401        O  0.07774579  0.74025287  0.04052058    -0.86600
O402        O  0.03113528  0.68799369  0.85574450    -0.79400
C403        C  0.14257892  0.69885197  0.92899586     0.94400
C404        C  0.14568135  0.80437725  0.05817423     0.94300
Mg405      Mg  0.44764321  0.72885614  0.89982533     1.58000
O406        O  0.39098552  0.69932652  0.90996525    -0.79300
O407        O  0.50067645  0.76066401  0.88082497    -0.73600
O408        O  0.14221990  0.72476232  0.95444350    -0.79400
O409        O  0.04831347  0.79979895  0.17001759    -0.81100
O410        O  0.36626263  0.77753430  0.04618328    -0.79400
C411        C  0.03340140  0.76036348  0.90116451     0.88700
O412        O  0.43319834  0.75919592  0.96220334    -0.86600
O413        O  0.48309867  0.69898526  0.94981995    -0.86700
O414        O  0.44435283  0.68866596  0.01286245    -0.73700
Mg415      Mg  0.09761858  0.76499501  0.97425066     1.58000
O416        O  0.11103986  0.68533660  0.91486180    -0.81100
H417        H  0.02000117  0.84107165  0.02164408    -0.04800
O418        O  0.45465386  0.75452962  0.07275759    -0.86400
H419        H  0.44928459  0.71833562  0.12255955    -0.04700
H420        H  0.42373230  0.79732991  0.91644147    -0.04800
C421        C  0.46843448  0.73577538  0.10532300     0.88700
C422        C  0.03343170  0.81714913  0.02239945     0.89300
C423        C  0.43267850  0.78867180  0.95347525     0.89300
H424        H  0.48112751  0.65520018  0.98245824    -0.04800
O425        O  0.07015245  0.68952687  0.01972854    -0.73800
Mg426      Mg  0.40824361  0.73532518  0.02676740     1.58000
H427        H  0.09283755  0.70357743  0.08693395    -0.04800
C428        C  0.51018485  0.80878060  0.18215833     0.94300
O429        O  0.39746752  0.81658302  0.08734800    -0.81100
C430        C  0.36582560  0.80371362  0.07111631     0.94400
O431        O  0.14663976  0.78858211  0.01748005    -0.81100
Mg432      Mg  0.04829564  0.69118254  0.93787126     1.58200
O433        O  0.47944751  0.81090743  0.15387800    -0.79400
O434        O  0.46332740  0.69735946  0.83278221    -0.81100
C435        C  0.49593512  0.90628001  0.35676506     0.47100
H436        H  0.99025896  0.93973603  0.34107577    -0.01900
C437        C  0.49179287  0.84368819  0.34485064     0.47200
H438        H  0.49016683  0.81707721  0.33966315    -0.01900
C439        C  0.49200148  0.89571225  0.30172730    -0.15600
C440        C  0.02843790  0.89969579  0.37045335    -0.15300
C441        C  0.45980249  0.89131267  0.38165656    -0.15700
C442        C  0.98985618  0.86275241  0.29777304    -0.15700
C443        C  0.03011364  0.86659219  0.37419485    -0.15300
C444        C  0.45745828  0.85833255  0.37479785    -0.15600
O445        O  0.26997467  0.55230444  0.54270994    -0.86700
C446        C  0.32390589  0.96566411  0.53217692     0.89400
Mg447      Mg  0.21106563  0.55670166  0.57096874     1.58100
O448        O  0.29029397  0.00048499  0.41813884    -0.86400
O449        O  0.30384540  0.56583654  0.47652244    -0.73700
C450        C  0.10835908  0.94367605  0.44529235     0.94400
O451        O  0.25919451  0.98632157  0.61362122    -0.73500
O452        O  0.10895538  0.95619348  0.48885178    -0.81100
Mg453      Mg  0.31106395  0.52281684  0.58675164     1.58000
C454        C  0.23433216  0.94582971  0.31050424     0.94300
O455        O  0.36434787  0.55595736  0.57126126    -0.79300
H456        H  0.28933683  0.53836879  0.36784201    -0.04700
C457        C  0.21983154  0.93126912  0.47667823     0.89300
O458        O  0.18449275  0.55991632  0.49142507    -0.73800
O459        O  0.32004347  0.99523602  0.52534244    -0.86600
O460        O  0.26640607  0.94531848  0.33629471    -0.79400
C461        C  0.38235705  0.95709666  0.40931353     0.94400
C462        C  0.39328453  0.55633659  0.54111736     0.94300
Mg463      Mg  0.18808646  0.98192016  0.40061941     1.58000
O464        O  0.13541984  0.94855279  0.41347484    -0.79300
O465        O  0.23636458  0.51749033  0.37821810    -0.73600
O466        O  0.38183196  0.98326078  0.43437886    -0.79400
O467        O  0.29952395  0.55077244  0.65692102    -0.81100
O468        O  0.11620637  0.52324945  0.55831885    -0.79400
C469        C  0.27324780  0.51934852  0.38626318     0.88700
O470        O  0.17615052  0.50991667  0.46743165    -0.86600
O471        O  0.22852751  0.95181921  0.44468863    -0.86700
O472        O  0.19696234  0.93777129  0.51269149    -0.73700
Mg473      Mg  0.34039867  0.52043644  0.45647079     1.58000
O474        O  0.35100975  0.94296134  0.39541475    -0.81100
H475        H  0.26748498  0.59694558  0.51289789    -0.04800
O476        O  0.20785588  0.50471597  0.57333339    -0.86400
H477        H  0.20654259  0.96468800  0.62277436    -0.04700
H478        H  0.15816183  0.54789076  0.42537305    -0.04800
C479        C  0.22246149  0.98402101  0.60489966     0.88700
C480        C  0.28000702  0.57277944  0.51135072     0.89300
C481        C  0.17176539  0.53937664  0.46020290     0.89300
H482        H  0.23343319  0.90744093  0.47514145    -0.04800
O483        O  0.31184370  0.94533943  0.50010805    -0.73800
Mg484      Mg  0.15760949  0.98126647  0.53239100     1.58000
H485        H  0.33641459  0.95683447  0.56747156    -0.04800
C486        C  0.26745302  0.56054666  0.67583010     0.94300
O487        O  0.14827493  0.56187643  0.59942382    -0.81100
C488        C  0.11635519  0.54853348  0.58535793     0.94400
O489        O  0.39239059  0.54146922  0.49944796    -0.81100
Mg490      Mg  0.28767451  0.94833843  0.41922495     1.58200
O491        O  0.23470582  0.56036680  0.65174438    -0.79400
O492        O  0.20176752  0.95528776  0.32875733    -0.81100
C493        C  0.25327707  0.85029937  0.13790205     0.47100
H494        H  0.25382095  0.82343322  0.13664241    -0.01900
C495        C  0.25084591  0.91348953  0.14275314     0.47200
H496        H  0.25004414  0.94036318  0.14508256    -0.01900
C497        C  0.25890014  0.86333871  0.19135047    -0.15600
C498        C  0.28589234  0.86697441  0.10738322    -0.15300
C499        C  0.21385748  0.86588094  0.11982753    -0.15700
C500        C  0.25810948  0.89646472  0.19388139    -0.15700
C501        C  0.28321399  0.90017529  0.10898040    -0.15300
C502        C  0.21292825  0.89899966  0.12196343    -0.15600
O503        O  0.22474629  0.80050401  0.43674286    -0.86700
C504        C  0.17203454  0.71294411  0.45304674     0.89400
Mg505      Mg  0.28419412  0.80445110  0.41102713     1.58100
O506        O  0.20157434  0.74917153  0.56645421    -0.86400
O507        O  0.18909877  0.81339879  0.50186276    -0.73700
C508        C  0.38625839  0.69202288  0.53823554     0.94400
O509        O  0.23555194  0.73685931  0.36887665    -0.73500
O510        O  0.38448128  0.70398640  0.49405711    -0.81100
Mg511      Mg  0.18573709  0.77144988  0.39190654     1.58000
C512        C  0.26256117  0.69626304  0.67598171     0.94300
O513        O  0.13154425  0.80490758  0.40584433    -0.79300
H514        H  0.20175730  0.78761572  0.61162188    -0.04700
C515        C  0.27446114  0.68054999  0.50932002     0.89300
O516        O  0.30839216  0.80737322  0.49130577    -0.73800
O517        O  0.17454933  0.74258259  0.45826432    -0.86600
O518        O  0.22963703  0.69601094  0.65199943    -0.79400
C519        C  0.11221524  0.70298313  0.57740732     0.94400
C520        C  0.10199248  0.80495799  0.43502805     0.94300
Mg521      Mg  0.30583292  0.73103075  0.58307349     1.58000
O522        O  0.35975463  0.69754305  0.57072516    -0.79300
O523        O  0.25551255  0.76640023  0.60318835    -0.73600
O524        O  0.11123271  0.72716201  0.54712344    -0.79400
O525        O  0.19885809  0.80055046  0.32057161    -0.81100
O526        O  0.37862499  0.76876714  0.42802926    -0.79400
C527        C  0.21858973  0.76822076  0.59477225     0.88700
O528        O  0.31703615  0.75710909  0.51626273    -0.86600
O529        O  0.26591974  0.70090428  0.54140932    -0.86700
O530        O  0.29663276  0.68705219  0.47264602    -0.73700
Mg531      Mg  0.15295788  0.76835124  0.52238052     1.58000
O532        O  0.14460059  0.69159511  0.59546365    -0.81100
H533        H  0.22524373  0.84478408  0.46660232    -0.04800
O534        O  0.28818422  0.75239617  0.40990289    -0.86400
H535        H  0.28973203  0.71661938  0.35981194    -0.04700
H536        H  0.33388729  0.79450762  0.55813383    -0.04800
C537        C  0.27223147  0.73489630  0.37839789     0.88700
C538        C  0.21343966  0.82061146  0.46778369     0.89300
C539        C  0.32101863  0.78644013  0.52305900     0.89300
H540        H  0.26119383  0.65699047  0.51130437    -0.04800
O541        O  0.18326677  0.69310309  0.48748461    -0.73800
Mg542      Mg  0.33524837  0.72984910  0.45159408     1.58000
H543        H  0.16074850  0.70363930  0.41787864    -0.04800
C544        C  0.23154449  0.80975027  0.30284458     0.94300
O545        O  0.34767918  0.80925385  0.38671572    -0.81100
C546        C  0.37915417  0.79497256  0.40251564     0.94400
O547        O  0.10217227  0.78935843  0.47645149    -0.81100
Mg548      Mg  0.20735132  0.69729786  0.56885551     1.58200
O549        O  0.26346168  0.80846998  0.32871744    -0.79400
O550        O  0.29425226  0.70492152  0.65548281    -0.81100
C551        C  0.25060532  0.65842146  0.84778294     0.47100
H552        H  0.24832597  0.68517030  0.85139474    -0.01900
C553        C  0.25647778  0.59574716  0.83765963     0.47200
H554        H  0.25897084  0.56906105  0.83314437    -0.01900
C555        C  0.24468422  0.64692070  0.79344877    -0.15600
C556        C  0.29083932  0.64397969  0.86437836    -0.15300
C557        C  0.21928179  0.63944253  0.87682247    -0.15700
C558        C  0.24817481  0.61407797  0.78820735    -0.15700
C559        C  0.29372080  0.61115830  0.85927031    -0.15300
C560        C  0.22246155  0.60625498  0.87123899    -0.15600
C561        C  0.23601827  0.66870136  0.75027537    -0.14800
C562        C  0.26534416  0.68453645  0.72849508    -0.29900
H563        H  0.20804642  0.66603482  0.73052069     0.14300
H564        H  0.29399850  0.68497115  0.74730407     0.14800
C565        C  0.26225751  0.84241233  0.23673271    -0.14800
C566        C  0.23220391  0.82396323  0.25154811    -0.29900
H567        H  0.28707198  0.84629356  0.26210443     0.14300
H568        H  0.20600597  0.82234729  0.22775457     0.14800
C569        C  0.26248126  0.91383692  0.24199165    -0.14800
C570        C  0.23427323  0.93406356  0.25821354    -0.29900
H571        H  0.28642272  0.90635785  0.26730184     0.14300
H572        H  0.20859747  0.93921474  0.23436235     0.14800
C573        C  0.26867984  0.57370679  0.72673658    -0.14800
C574        C  0.24406539  0.59774287  0.73948688    -0.29900
H575        H  0.29249396  0.56606445  0.75217210     0.14300
H576        H  0.22288256  0.60749532  0.71201856     0.14800
C577        C  0.06650402  0.84869285  0.38936276    -0.14800
C578        C  0.06577618  0.82293379  0.42019547    -0.29900
H579        H  0.09453123  0.85778795  0.37659148     0.14300
H580        H  0.03805144  0.81552000  0.43624313     0.14800
C581        C  0.41982442  0.84108079  0.38064545    -0.14800
C582        C  0.41765598  0.80966249  0.39286521    -0.29900
H583        H  0.39266796  0.85501271  0.37545216     0.14300
H584        H  0.44436436  0.79546270  0.40019372     0.14800
C585        C  0.42671434  0.91051413  0.40344690    -0.14800
C586        C  0.42047500  0.94238899  0.39578673    -0.29900
H587        H  0.40461566  0.89747213  0.42429454     0.14300
H588        H  0.44195620  0.95748087  0.37762841     0.14800
C589        C  0.06135216  0.92112102  0.38419365    -0.14800
C590        C  0.07534877  0.92258069  0.43159586    -0.29900
H591        H  0.07276009  0.93705300  0.35528563     0.14300
H592        H  0.06130073  0.90881118  0.46120364     0.14800
C593        C  0.18073948  0.68407151  0.91537615    -0.14800
C594        C  0.18213968  0.65552283  0.89182403    -0.29900
H595        H  0.20777052  0.69630141  0.92549139     0.14300
H596        H  0.15486183  0.64342716  0.88259821     0.14800
C597        C  0.32468325  0.68253071  0.92006261    -0.14800
C598        C  0.32498644  0.66367794  0.87932007    -0.29900
H599        H  0.29806508  0.68462247  0.94205923     0.14300
H600        H  0.35207167  0.66017246  0.85873547     0.14800
C601        C  0.18056436  0.82329547  0.07209410    -0.14800
C602        C  0.17887155  0.84685813  0.10616852    -0.29900
H603        H  0.20806882  0.81830251  0.05307067     0.14300
H604        H  0.15087998  0.85344850  0.12275413     0.14800
C605        C  0.32699479  0.81873802  0.08239670    -0.14800
C606        C  0.32317827  0.85052399  0.09141404    -0.29900
H607        H  0.30125191  0.80350173  0.08215596     0.14300
H608        H  0.34925485  0.86525118  0.08813675     0.14800
C609        C  0.50926576  0.82173206  0.23361428    -0.14800
C610        C  0.98545229  0.84185443  0.25336895    -0.29900
H611        H  0.04203751  0.82121397  0.26095069     0.14300
H612        H  0.46826942  0.85902682  0.21644295     0.14800
C613        C  0.07459610  0.65985341  0.61852001    -0.14800
C614        C  0.07458984  0.68753293  0.59143802    -0.29900
H615        H  0.10278873  0.64952673  0.63035219     0.14700
H616        H  0.04698770  0.69804395  0.57741199     0.14800
C617        C  0.43533757  0.66998051  0.59837399    -0.14800
C618        C  0.41992316  0.67068466  0.55168537    -0.29900
H619        H  0.42485558  0.68708830  0.62615652     0.14300
H620        H  0.43277944  0.65570961  0.52261149     0.14800
C621        C  0.42906888  0.59832171  0.58768542    -0.14800
C622        C  0.42967379  0.57341024  0.55572737    -0.29900
H623        H  0.40097770  0.60768046  0.60073563     0.14300
H624        H  0.45747046  0.56538472  0.54000958     0.14800
C625        C  0.07801960  0.56313310  0.59928066    -0.14800
C626        C  0.07604069  0.58860856  0.62994321    -0.29900
H627        H  0.05132482  0.55429248  0.58143147     0.14300
H628        H  0.10288111  0.59730310  0.64741427     0.14800
C629        C  0.98196240  0.66662040  0.74163007    -0.14800
C630        C  0.50215272  0.67756958  0.76576500    -0.29900
H631        H  0.45781405  0.64306375  0.77242697     0.14300
H632        H  0.04019290  0.66810297  0.76719913     0.14800
C633        C  0.32779781  0.56537102  0.90065655    -0.14800
C634        C  0.32984871  0.59214916  0.87219707    -0.29900
H635        H  0.29934216  0.55765709  0.91413294     0.14300
H636        H  0.35837667  0.60175561  0.86256859     0.14800
C637        C  0.16723897  0.58494359  0.92200946    -0.14800
C638        C  0.19084522  0.58271687  0.88227101    -0.29900
H639        H  0.17201323  0.60323990  0.95041560     0.14300
H640        H  0.18672003  0.56295257  0.85607535     0.14800
C641        C  0.47819180  0.58196914  0.73363244    -0.14800
C642        C  0.50637004  0.56247335  0.75355618    -0.29900
H643        H  0.01163787  0.60986066  0.78609061     0.14300
H644        H  0.53522613  0.56167000  0.73641469     0.14800
C645        C  0.31240765  0.92155892  0.08628141    -0.14800
C646        C  0.33844536  0.93609043  0.11612602    -0.29900
H647        H  0.31640458  0.92116103  0.04579202     0.14300
H648        H  0.33691931  0.93278596  0.15670591     0.14800
C649        C  0.18151018  0.94441540  0.07454281    -0.14800
C650        C  0.17837128  0.91909480  0.10635817    -0.29900
H651        H  0.20995061  0.95037375  0.05906647     0.14300
H652        H  0.14950498  0.91152745  0.11841964     0.14800
C653        C  0.48826258  0.91860549  0.25942618    -0.14800
C654        C  0.51932860  0.93519409  0.24359789    -0.29900
H655        H  0.46201220  0.91684694  0.23580127     0.14300
H656        H  0.03674809  0.94225747  0.26012729     0.14800
O657        O  0.96776455  0.04214275  0.94147500    -0.86700
C658        C  0.93952155  0.45348303  0.96471068     0.89400
Mg659      Mg  0.53971839  0.04960629  0.92171738     1.58100
O660        O  0.96396036  0.49162128  0.07818121    -0.86400
O661        O  0.92576893  0.05216187  0.00105743    -0.73700
C662        C  0.63940441  0.45102496  0.07931264     0.94400
O663        O  0.00390594  0.48297736  0.88929338    -0.73500
O664        O  0.64300544  0.45923235  0.03332605    -0.81100
Mg665      Mg  0.93751851  0.00757704  0.89517881     1.58000
C666        C  0.50535939  0.45130517  0.18931255     0.94300
O667        O  0.87831364  0.03412946  0.90447387    -0.79300
H668        H  0.94077950  0.02959723  0.11133013    -0.04700
C669        C  0.53440869  0.43123313  0.03274433     0.89300
O670        O  0.56223413  0.05606026  0.00246255    -0.73800
O671        O  0.93792082  0.48294993  0.97208710    -0.86600
O672        O  0.99822216  0.43994226  0.15781311    -0.79400
C673        C  0.88460720  0.43759449  0.09226873     0.94400
C674        C  0.84750422  0.03404137  0.93131387     0.94300
Mg675      Mg  0.55335660  0.48822861  0.10230572     1.58000
O676        O  0.60903288  0.45790019  0.10438729    -0.79300
O677        O  0.51124177  0.01652492  0.11694246    -0.73600
O678        O  0.87708685  0.46161366  0.06270671    -0.79400
O679        O  0.94637182  0.03626803  0.82340755    -0.81100
O680        O  0.63573983  0.01950971  0.94497700    -0.79400
C681        C  0.96227464  0.01281379  0.09640355     0.88700
O682        O  0.57369202  0.00715346  0.03195628    -0.86600
O683        O  0.52076807  0.45356226  0.05810204    -0.86700
O684        O  0.55995749  0.43613646  0.99936422    -0.73700
Mg685      Mg  0.89941192  0.00290188  0.02225667     1.58000
O686        O  0.91941816  0.42868710  0.10391717    -0.81100
H687        H  0.95684576  0.08705416  0.96572668    -0.04800
O688        O  0.54785128  0.99758630  0.92499330    -0.86400
H689        H  0.55777904  0.45807469  0.88197622    -0.04700
H690        H  0.58663659  0.04670099  0.07127894    -0.04800
C691        C  0.53897719  0.47749771  0.89511840     0.88700
C692        C  0.95037932  0.06156198  0.96874681     0.89300
C693        C  0.57531526  0.03684860  0.03649846     0.89300
H694        H  0.52288691  0.40715381  0.03749706    -0.04800
O695        O  0.95568463  0.43416370  0.99638637    -0.73800
Mg696      Mg  0.59699086  0.47969764  0.97805007     1.58000
H697        H  0.92849078  0.44413605  0.92943548    -0.04800
C698        C  0.97614853  0.05134284  0.80788495     0.94300
O699        O  0.60340809  0.05690780  0.89853012    -0.81100
C700        C  0.63530457  0.04452753  0.91678500     0.94400
O701        O  0.84605093  0.01814716  0.97270508    -0.81100
Mg702      Mg  0.97881099  0.44075473  0.07666326     1.58200
O703        O  0.51863455  0.05086896  0.83891473    -0.79400
O704        O  0.53676150  0.46442749  0.17486146    -0.81100
C705        C  0.99640310  0.09391632  0.65025802     0.47100
H706        H  0.49836168  0.06472932  0.65882980    -0.01900
C707        C  0.99646878  0.15695107  0.64155251     0.47200
H708        H  0.99618635  0.18378702  0.63920506    -0.01900
C709        C  0.99248816  0.11152555  0.70051862    -0.15600
C710        C  0.53799750  0.10462530  0.63889093    -0.15300
C711        C  0.96257290  0.10775336  0.61723819    -0.15700
C712        C  0.49071131  0.14229166  0.70034269    -0.15700
C713        C  0.53930992  0.13765565  0.63473460    -0.15300
C714        C  0.96227398  0.14098112  0.61273602    -0.15600
O715        O  0.51711923  0.29333741  0.05836790    -0.86700
C716        C  0.57649762  0.20949583  0.04633335     0.89400
Mg717      Mg  0.95510554  0.30426178  0.06213970     1.58100
O718        O  0.55164942  0.24866093  0.93197060    -0.86400
O719        O  0.55505943  0.31142584  0.99903762    -0.73700
C720        C  0.86129012  0.19404359  0.93038919     0.94400
O721        O  0.50466620  0.22717328  0.11754949    -0.73500
O722        O  0.85855983  0.21044817  0.97035685    -0.81100
Mg723      Mg  0.55401525  0.26428403  0.10599156     1.58000
C724        C  0.00710579  0.18471904  0.82350402     0.94300
O725        O  0.60289223  0.30067504  0.09980693    -0.79300
H726        H  0.55410029  0.28636904  0.88437875    -0.04700
C727        C  0.97080908  0.17783641  0.98324149     0.89300
O728        O  0.94050074  0.30560491  0.97795021    -0.73800
O729        O  0.57394159  0.23926070  0.04118263    -0.86600
O730        O  0.53409177  0.19737332  0.84371847    -0.79400
C731        C  0.64396678  0.20568403  0.92759996     0.94400
C732        C  0.63339262  0.30718539  0.07487281     0.94300
Mg733      Mg  0.95038737  0.22435481  0.89884703     1.58000
O734        O  0.89333882  0.19219194  0.90547959    -0.79300
O735        O  0.00303399  0.25803445  0.88426394    -0.73600
O736        O  0.64343581  0.23074262  0.95545254    -0.79400
O737        O  0.53430526  0.29069426  0.17596361    -0.81100
O738        O  0.86002595  0.27369825  0.03547017    -0.79400
C739        C  0.53666210  0.26705055  0.89972109     0.88700
O740        O  0.93065703  0.25527508  0.95709694    -0.86600
O741        O  0.98530352  0.19749636  0.95378284    -0.86700
O742        O  0.94238040  0.18578021  0.01130461    -0.73700
Mg743      Mg  0.59635918  0.26892926  0.98054193     1.58000
O744        O  0.61250455  0.19239012  0.91203695    -0.81100
H745        H  0.51415368  0.33925658  0.03377809    -0.04800
O746        O  0.94887910  0.25244109  0.06811210    -0.86400
H747        H  0.94341739  0.21612872  0.11772013    -0.04700
H748        H  0.92200363  0.29204617  0.90851141    -0.04800
C749        C  0.96209275  0.23459403  0.10227547     0.88700
C750        C  0.52833901  0.31571945  0.03120970     0.89300
C751        C  0.92997997  0.28446476  0.94642773     0.89300
H752        H  0.98300528  0.15352059  0.98580141    -0.04800
O753        O  0.56567824  0.19037879  0.01185848    -0.73800
Mg754      Mg  0.90440179  0.23203668  0.02068959     1.58000
H755        H  0.58636668  0.19946464  0.08218071    -0.04800
C756        C  0.99227110  0.31250368  0.17795013     0.94300
O757        O  0.89264846  0.31209261  0.07556933    -0.81100
C758        C  0.86080600  0.29984200  0.06034800     0.94400
O759        O  0.64137015  0.29327434  0.03337006    -0.81100
Mg760      Mg  0.54773139  0.19680477  0.92908204     1.58200
O761        O  0.96421804  0.31070476  0.14616919    -0.79400
O762        O  0.97217881  0.19317502  0.83497900    -0.81100
C763        C  0.99429285  0.40781562  0.34673280     0.47100
H764        H  0.48881675  0.43211560  0.34215010    -0.01900
C765        C  0.00404915  0.34532980  0.35686230     0.47200
H766        H  0.00836142  0.31865137  0.36042166    -0.01900
C767        C  0.99901932  0.38986154  0.29696842    -0.15600
C768        C  0.52679229  0.39400101  0.37803531    -0.15300
C769        C  0.95956905  0.39098592  0.37227969    -0.15700
C770        C  0.50215332  0.35563597  0.29889505    -0.15700
C771        C  0.53009499  0.36091289  0.38274610    -0.15300
C772        C  0.96486324  0.35785116  0.37737799    -0.15600
O773        O  0.76204381  0.05356597  0.54490473    -0.86700
C774        C  0.82288675  0.46241891  0.53708751     0.89400
Mg775      Mg  0.70388925  0.05402463  0.57363751     1.58100
O776        O  0.78894629  0.49755916  0.42300738    -0.86400
O777        O  0.79070945  0.06968180  0.47595344    -0.73700
C778        C  0.60641011  0.43921287  0.45160631     0.94400
O779        O  0.75814198  0.48349404  0.61780273    -0.73500
O780        O  0.60692883  0.45204101  0.49488547    -0.81100
Mg781      Mg  0.80503253  0.02475130  0.58677008     1.58000
C782        C  0.73178384  0.44228949  0.31474736     0.94300
O783        O  0.85571326  0.05990034  0.57276115    -0.79300
H784        H  0.78220553  0.04107755  0.36443887    -0.04700
C785        C  0.71841561  0.42773151  0.48070991     0.89300
O786        O  0.67730413  0.05834609  0.49340952    -0.73800
O787        O  0.81990213  0.49212940  0.53094918    -0.86600
O788        O  0.76416499  0.44230761  0.33997696    -0.79400
C789        C  0.88095597  0.45316658  0.41332123     0.94400
C790        C  0.88158225  0.06644932  0.54002089     0.94300
Mg791      Mg  0.68584109  0.47804882  0.40544484     1.58000
O792        O  0.63327365  0.44417194  0.41940659    -0.79300
O793        O  0.73043695  0.01832004  0.37473487    -0.73600
O794        O  0.88072267  0.47861877  0.44026831    -0.79400
O795        O  0.79215065  0.04999380  0.65967033    -0.81100
O796        O  0.61057471  0.02065415  0.55521219    -0.79400
C797        C  0.76699338  0.02174592  0.38332788     0.88700
O798        O  0.67125561  0.00905817  0.46475722    -0.86600
O799        O  0.72703654  0.44866604  0.44933536    -0.86700
O800        O  0.69510840  0.43371042  0.51647183    -0.73700
Mg801      Mg  0.83207747  0.02802180  0.45396806     1.58000
O802        O  0.84929433  0.44027722  0.39758321    -0.81100
H803        H  0.75352041  0.09803362  0.51588912    -0.04800
O804        O  0.70286923  0.00192845  0.57127520    -0.86400
H805        H  0.70615088  0.46049914  0.62531674    -0.04700
H806        H  0.65301541  0.04809030  0.42522904    -0.04800
C807        C  0.72168509  0.48016505  0.60774552     0.88700
C808        C  0.76851428  0.07484019  0.51311982     0.89300
C809        C  0.66624130  0.03865565  0.45973331     0.89300
H810        H  0.73233866  0.40409972  0.47875937    -0.04800
O811        O  0.81073527  0.44258546  0.50420966    -0.73800
Mg812      Mg  0.65579866  0.47715167  0.53687325     1.58000
H813        H  0.83496819  0.45302171  0.57227293    -0.04800
C814        C  0.75967399  0.05755549  0.67982823     0.94300
O815        O  0.64269191  0.05580708  0.60299882    -0.81100
C816        C  0.61088410  0.04396885  0.58610589     0.94400
O817        O  0.88029900  0.05503719  0.49570182    -0.81100
Mg818      Mg  0.78615536  0.44548919  0.42305908     1.58200
O819        O  0.72692233  0.05644470  0.65578954    -0.79400
O820        O  0.69932521  0.45145003  0.33354791    -0.81100
C821        C  0.76024966  0.34336985  0.14470777     0.47100
H822        H  0.76427477  0.31663270  0.14430655    -0.01900
C823        C  0.75027937  0.40611886  0.14797057     0.47200
H824        H  0.74683626  0.43288520  0.14937813    -0.01900
C825        C  0.75835163  0.35687281  0.19822720    -0.15600
C826        C  0.79277105  0.36237347  0.11884892    -0.15300
C827        C  0.72283502  0.35535684  0.11759972    -0.15700
C828        C  0.75354102  0.38976515  0.20010082    -0.15700
C829        C  0.78787266  0.39550335  0.12131356    -0.15300
C830        C  0.71730259  0.38840874  0.11918595    -0.15600
O831        O  0.72119468  0.30377627  0.45511432    -0.86700
C832        C  0.67728469  0.21282488  0.46365188     0.89400
Mg833      Mg  0.77941945  0.31475866  0.43330013     1.58100
O834        O  0.70134509  0.24791753  0.58009863    -0.86400
O835        O  0.68338323  0.31324656  0.51939876    -0.73700
C836        C  0.89354606  0.20864377  0.56006801     0.94400
O837        O  0.74376901  0.24281300  0.38845617    -0.73500
O838        O  0.89438710  0.22729277  0.52176257    -0.81100
Mg839      Mg  0.68824356  0.27245256  0.40763118     1.58000
C840        C  0.76398176  0.19420117  0.68723474     0.94300
O841        O  0.63049920  0.30097476  0.41912967    -0.79300
H842        H  0.69499871  0.28308965  0.63068779    -0.04700
C843        C  0.78588414  0.18801931  0.52147067     0.89300
O844        O  0.79887303  0.31768587  0.51628591    -0.73800
O845        O  0.67763247  0.24226563  0.47149859    -0.86600
O846        O  0.73205543  0.19363593  0.66127064    -0.79400
C847        C  0.61594038  0.19733342  0.58432767     0.94400
C848        C  0.60054968  0.30035383  0.44747116     0.94300
Mg849      Mg  0.80587485  0.23642360  0.60167250     1.58000
O850        O  0.86299194  0.20638130  0.58720726    -0.79300
O851        O  0.75125210  0.26658818  0.62378449    -0.73600
O852        O  0.61429744  0.22250151  0.55642984    -0.79400
O853        O  0.69941661  0.30346477  0.33875934    -0.81100
O854        O  0.87778938  0.29303474  0.45879500    -0.79400
C855        C  0.71473948  0.26625683  0.61246987     0.88700
O856        O  0.81532725  0.26814420  0.53955524    -0.86600
O857        O  0.77127364  0.20596046  0.55353712    -0.86700
O858        O  0.81073714  0.19831453  0.48987246    -0.73700
Mg859      Mg  0.65217765  0.26566044  0.53564006     1.58000
O860        O  0.64861129  0.18577885  0.60158010    -0.81100
H861        H  0.71589800  0.34763783  0.48549673    -0.04800
O862        O  0.79318141  0.26374923  0.43056759    -0.86400
H863        H  0.80045892  0.22736984  0.38232317    -0.04700
H864        H  0.82163147  0.30596296  0.58524823    -0.04800
C865        C  0.78025323  0.24433201  0.39943391     0.88700
C866        C  0.70695087  0.32268833  0.48592523     0.89300
C867        C  0.81288533  0.29746251  0.54844508     0.89300
H868        H  0.77685239  0.16306402  0.51974614    -0.04800
O869        O  0.69021545  0.19246645  0.49620977    -0.73800
Mg870      Mg  0.84224882  0.24685678  0.47544808     1.58000
H871        H  0.66689716  0.20426762  0.42757212    -0.04800
C872        C  0.73079076  0.31549558  0.32169052     0.94300
O873        O  0.84105412  0.32886340  0.41450980    -0.81100
C874        C  0.87376267  0.31941888  0.43373771     0.94400
O875        O  0.60059292  0.28491278  0.48904244    -0.81100
Mg876      Mg  0.71206457  0.19635170  0.57797579     1.58200
O877        O  0.76224283  0.31732029  0.34839385    -0.79400
O878        O  0.79570705  0.20516100  0.66972427    -0.81100
C879        C  0.75009171  0.15317245  0.85301839     0.47100
H880        H  0.75245503  0.17991447  0.85412953    -0.01900
C881        C  0.74501176  0.09019353  0.84761832     0.47200
H882        H  0.74290859  0.06342988  0.84494270    -0.01900
C883        C  0.74184770  0.14055047  0.79958295    -0.15600
C884        C  0.78789276  0.13476252  0.87043670    -0.15300
C885        C  0.71625173  0.13916106  0.88432566    -0.15700
C886        C  0.73979831  0.10753401  0.79674146    -0.15700
C887        C  0.78471906  0.10171054  0.86854279    -0.15300
C888        C  0.71312529  0.10607385  0.87988239    -0.15600
C889        C  0.73615415  0.16157970  0.75489773    -0.14800
C890        C  0.76507357  0.18038007  0.73855990    -0.29900
H891        H  0.71055484  0.15741157  0.73096762     0.14300
H892        H  0.79191105  0.18250996  0.76103867     0.14800
C893        C  0.76181300  0.33642047  0.24422862    -0.14800
C894        C  0.72945486  0.32915645  0.27009998    -0.29900
H895        H  0.79096079  0.33062406  0.25939903     0.14300
H896        H  0.70067534  0.33494713  0.25359482     0.14800
C897        C  0.75738629  0.40754360  0.24813168    -0.14800
C898        C  0.73119804  0.43003972  0.26259962    -0.29900
H899        H  0.77983789  0.39895550  0.27486530     0.14300
H900        H  0.70648284  0.43654461  0.23789153     0.14800
C901        C  0.76063640  0.06913335  0.73215018    -0.14800
C902        C  0.73362714  0.09031826  0.74875435    -0.29900
H903        H  0.78646770  0.06341497  0.75542883     0.14300
H904        H  0.70979201  0.09854932  0.72382253     0.14800
C905        C  0.56598191  0.34441021  0.40262780    -0.14800
C906        C  0.56434777  0.31755162  0.43100754    -0.29900
H907        H  0.59434585  0.35478715  0.39405277     0.14300
H908        H  0.53609509  0.30850577  0.44303076     0.14800
C909        C  0.93447121  0.33435009  0.39253250    -0.14800
C910        C  0.90757725  0.34052893  0.42750420    -0.29900
H911        H  0.93404693  0.31120462  0.37339225     0.14300
H912        H  0.90789640  0.36300834  0.44827845     0.14800
C913        C  0.92153591  0.40815124  0.38078350    -0.14800
C914        C  0.91930320  0.43788065  0.40089610    -0.29900
H915        H  0.89463686  0.39529491  0.37232606     0.14300
H916        H  0.94613163  0.45030590  0.41131473     0.14800
C917        C  0.55822819  0.41676004  0.39233632    -0.14800
C918        C  0.57381801  0.41751114  0.43890599    -0.29900
H919        H  0.56782494  0.43392953  0.36397424     0.14300
H920        H  0.56164630  0.40253559  0.46852876     0.14800
C921        C  0.68194039  0.19102757  0.91199847    -0.14800
C922        C  0.68500815  0.15858614  0.91002694    -0.29900
H923        H  0.70545577  0.20651600  0.89963282     0.14300
H924        H  0.66143981  0.14524804  0.92741133     0.14800
C925        C  0.82510157  0.17771364  0.91310014    -0.14800
C926        C  0.82519719  0.15124153  0.88444904    -0.29900
H927        H  0.79722206  0.18680567  0.92726465     0.14300
H928        H  0.85313713  0.14059196  0.87340882     0.14800
C929        C  0.65904908  0.33206509  0.09621136    -0.14800
C930        C  0.69786091  0.33248776  0.08940686    -0.29900
H931        H  0.64589615  0.34912826  0.12222758     0.14300
H932        H  0.71205671  0.31345652  0.06796211     0.14800
C933        C  0.82405899  0.31629709  0.07439218    -0.14800
C934        C  0.82578350  0.34628664  0.09333190    -0.29900
H935        H  0.79656180  0.30332372  0.07211415     0.14300
H936        H  0.85324529  0.35903990  0.09112986     0.14800
C937        C  0.98419334  0.32960346  0.22510313    -0.14800
C938        C  0.51370609  0.33546902  0.25578285    -0.29900
H939        H  0.46863041  0.30160027  0.26382340     0.14300
H940        H  0.04099229  0.32376788  0.25771495     0.14800
C941        C  0.57662179  0.15490685  0.62478737    -0.14800
C942        C  0.57816208  0.18188310  0.59667399    -0.29900
H943        H  0.60403912  0.14424152  0.63890588     0.14700
H944        H  0.55111085  0.19246881  0.58100391     0.14800
C945        C  0.92700544  0.15993597  0.59503443    -0.14800
C946        C  0.92930915  0.18945847  0.57373614    -0.29900
H947        H  0.89821257  0.14940967  0.60021668     0.14300
H948        H  0.95786116  0.19925298  0.56466816     0.14800
C949        C  0.92982705  0.08677932  0.60103134    -0.14800
C950        C  0.91435931  0.08768626  0.55421670    -0.29900
H951        H  0.91962849  0.06891658  0.62795590     0.14300
H952        H  0.92704495  0.10319474  0.52565680     0.14800
C953        C  0.57324495  0.05877795  0.60110223    -0.14800
C954        C  0.57298086  0.08372234  0.63283269    -0.29900
H955        H  0.54617059  0.05138587  0.58249880     0.14300
H956        H  0.60023050  0.09122990  0.65068715     0.14800
C957        C  0.48153861  0.16384585  0.74269298    -0.14800
C958        C  0.01468705  0.16967791  0.77443181    -0.29900
H959        H  0.95815540  0.17864342  0.74248153     0.14300
H960        H  0.53854444  0.18246694  0.74825192     0.14800
C961        C  0.81298170  0.05376070  0.91414525    -0.14800
C962        C  0.81747008  0.07907263  0.88252039    -0.29900
H963        H  0.78440525  0.04921643  0.93038070     0.14300
H964        H  0.84668120  0.08487538  0.86947498     0.14800
C965        C  0.67342933  0.05941326  0.90611998    -0.14800
C966        C  0.67531627  0.08960255  0.88812855    -0.29900
H967        H  0.70035888  0.04624792  0.91644438     0.14300
H968        H  0.64817477  0.10289813  0.87939907     0.14800
C969        C  0.99245969  0.09443551  0.74962863    -0.14800
C970        C  0.97513073  0.06586905  0.75712976    -0.29900
H971        H  0.50016572  0.10722769  0.78771937     0.14300
H972        H  0.95785351  0.05477037  0.72741002     0.14800
C973        C  0.81547120  0.41930718  0.09998597    -0.14800
C974        C  0.85320378  0.41857516  0.11504231    -0.29900
H975        H  0.80471746  0.43711610  0.07253966     0.14300
H976        H  0.86225665  0.40145655  0.14457805     0.14800
C977        C  0.67145567  0.43400903  0.10615019    -0.14800
C978        C  0.68657141  0.40613457  0.08958273    -0.29900
H979        H  0.67962774  0.44273751  0.14322892     0.14300
H980        H  0.67522991  0.39571795  0.05497307     0.14800
C981        C  0.99928480  0.40661056  0.24813754    -0.14800
C982        C  0.02682219  0.42835879  0.23703114    -0.29900
H983        H  0.97851967  0.39870171  0.21948429     0.14300
H984        H  0.51802178  0.45053333  0.27095241     0.14800
O985        O  0.98082191  0.54510487  0.95255248    -0.86700
C986        C  0.93220014  0.94952432  0.95525659     0.89400
Mg987      Mg  0.54683981  0.54858827  0.91667557     1.58100
O988        O  0.95099251  0.99142264  0.06741616    -0.86400
O989        O  0.94180371  0.55479114  0.01562497    -0.73700
C990        C  0.64554114  0.94520080  0.06056520     0.94400
O991        O  0.99560220  0.98030852  0.87940780    -0.73500
O992        O  0.64629885  0.95885167  0.01756890    -0.81100
Mg993      Mg  0.94764240  0.51207161  0.90745108     1.58000
C994        C  0.51971086  0.94804988  0.19184428     0.94300
O995        O  0.88975345  0.54108504  0.91952753    -0.79300
H996        H  0.95635260  0.52790985  0.12652657    -0.04700
C997        C  0.53648978  0.92874428  0.02827356     0.89300
O998        O  0.56415222  0.55849463  0.99852748    -0.73800
O999        O  0.92794242  0.97903611  0.96064442    -0.86600
O1000       O  0.98685505  0.94311445  0.15169522    -0.79400
C1001       C  0.87599999  0.93339207  0.08153850     0.94400
C1002       C  0.85977982  0.54072045  0.94796637     0.94300
Mg1003     Mg  0.56286226  0.98165974  0.09957546     1.58000
O1004       O  0.61635973  0.94814895  0.08973227    -0.79300
O1005       O  0.49996083  0.52190869  0.11086458    -0.73600
O1006       O  0.86690727  0.95636778  0.05052852    -0.79400
O1007       O  0.95713640  0.54029787  0.83605813    -0.81100
O1008       O  0.64069129  0.51900961  0.95432763    -0.79400
C1009       C  0.97671413  0.51116803  0.10921218     0.88700
O1010       O  0.57006201  0.51065141  0.03391303    -0.86600
O1011       O  0.52532554  0.95010642  0.05731675    -0.86700
O1012       O  0.56021077  0.93466090  0.99300186    -0.73700
Mg1013     Mg  0.91250952  0.50658394  0.03566530     1.58000
O1014       O  0.91114835  0.92690045  0.09479809    -0.81100
H1015       H  0.97356266  0.58944365  0.98085599    -0.04800
O1016       O  0.55240616  0.49700556  0.92572334    -0.86400
H1017       H  0.55221066  0.95923755  0.88002450    -0.04700
H1018       H  0.58242943  0.55128367  0.07084349    -0.04800
C1019       C  0.53332288  0.97763172  0.89604097     0.88700
C1020       C  0.96564116  0.56421173  0.98236442     0.89300
C1021       C  0.57316707  0.54037632  0.03587876     0.89300
H1022       H  0.52478288  0.90465478  0.03201645    -0.04800
O1023       O  0.94910104  0.93192938  0.98872657    -0.73800
Mg1024     Mg  0.59568169  0.97923353  0.97042034     1.58000
H1025       H  0.92287660  0.93868626  0.92026099    -0.04800
C1026       C  0.98700396  0.55426326  0.81846666     0.94300
O1027       O  0.61181750  0.55270410  0.89847897    -0.81100
C1028       C  0.64242832  0.54176900  0.92176318     0.94400
O1029       O  0.85939279  0.52443779  0.98897394    -0.81100
Mg1030     Mg  0.96972217  0.94133654  0.06952796     1.58200
O1031       O  0.53317916  0.54496524  0.83158194    -0.79400
O1032       O  0.55222292  0.95601266  0.17300045    -0.81100
C1033       C  0.00103791  0.59382708  0.65597920     0.47100
H1034       H  0.49441039  0.56797752  0.63377209    -0.01900
C1035       C  0.99904440  0.65673718  0.64548756     0.47200
H1036       H  0.99870593  0.68354515  0.64190068    -0.01900
C1037       C  0.99465981  0.61189590  0.70550000    -0.15600
C1038       C  0.53668730  0.60922444  0.62737327    -0.15300
C1039       C  0.96774988  0.60629078  0.62022288    -0.15700
C1040       C  0.48859948  0.63779696  0.69976768    -0.15700
C1041       C  0.53779534  0.64222207  0.63432758    -0.15300
C1042       C  0.96725376  0.63950886  0.61399034    -0.15600
O1043       O  0.52302330  0.79797123  0.05015560    -0.86700
C1044       C  0.57400160  0.70761619  0.04466984     0.89400
Mg1045     Mg  0.96309150  0.80121855  0.07834900     1.58100
O1046       O  0.55053923  0.74334934  0.92758629    -0.86400
O1047       O  0.56201189  0.80845202  0.98745415    -0.73700
C1048       C  0.86902951  0.68295612  0.95880591     0.94400
O1049       O  0.50473839  0.73541137  0.11753405    -0.73500
O1050       O  0.86851275  0.69725846  0.00104896    -0.81100
Mg1051     Mg  0.55807847  0.76660641  0.09938416     1.58000
C1052       C  0.00148827  0.68609567  0.82643121     0.94300
O1053       O  0.61520451  0.79602765  0.09043899    -0.79300
H1054       H  0.55554574  0.77923336  0.87710473    -0.04700
C1055       C  0.97964410  0.67458138  0.99321066     0.89300
O1056       O  0.94014732  0.80092409  0.99675609    -0.73800
O1057       O  0.57258660  0.73715559  0.03644749    -0.86600
O1058       O  0.52817731  0.69133514  0.84476854    -0.79400
C1059       C  0.63912460  0.69440200  0.92558048     0.94400
C1060       C  0.64548471  0.79654357  0.06247280     0.94300
Mg1061     Mg  0.94863398  0.72132931  0.91157470     1.58000
O1062       O  0.89627833  0.68719879  0.92675111    -0.79300
O1063       O  0.99713339  0.75704098  0.89014318    -0.73600
O1064       O  0.63950662  0.71949905  0.95302445    -0.79400
O1065       O  0.54235413  0.79616428  0.16746429    -0.81100
O1066       O  0.86922439  0.76477252  0.06403338    -0.79400
C1067       C  0.53670289  0.76155833  0.89433595     0.88700
O1068       O  0.93301991  0.75015932  0.97518969    -0.86600
O1069       O  0.98866546  0.69451644  0.96051723    -0.86700
O1070       O  0.95592546  0.68171776  0.02796214    -0.73700
Mg1071     Mg  0.59750771  0.76179377  0.97277147     1.58000
O1072       O  0.60715810  0.68270508  0.90871009    -0.81100
H1073       H  0.52579050  0.84200111  0.01854807    -0.04800
O1074       O  0.96123973  0.74915951  0.08401443    -0.86400
H1075       H  0.96210093  0.71400180  0.13630449    -0.04700
H1076       H  0.91697504  0.78705532  0.92972860    -0.04800
C1077       C  0.97836114  0.73242636  0.11671687     0.88700
C1078       C  0.53665161  0.81724085  0.01936176     0.89300
C1079       C  0.92894773  0.77946699  0.96597592     0.89300
H1080       H  0.99366996  0.65089696  0.99348394    -0.04800
O1081       O  0.56277554  0.68739610  0.01194228    -0.73800
Mg1082     Mg  0.91535469  0.72518553  0.04317928     1.58000
H1083       H  0.58370533  0.69883415  0.08134177    -0.04800
C1084       C  0.01537845  0.80900645  0.18726704     0.94300
O1085       O  0.89871657  0.80671202  0.10039145    -0.81100
C1086       C  0.86772249  0.79167863  0.08725121     0.94400
O1087       O  0.64643559  0.78231242  0.02033690    -0.81100
Mg1088     Mg  0.54349715  0.69180745  0.92901903     1.58200
O1089       O  0.98330031  0.80747941  0.16158267    -0.79400
O1090       O  0.96654965  0.69238644  0.84107126    -0.81100
C1091       C  0.99086275  0.91297087  0.34495533     0.47100
H1092       H  0.49852204  0.93286377  0.36076523    -0.01900
C1093       C  0.99358661  0.84977659  0.35198926     0.47200
H1094       H  0.99483370  0.82288624  0.35428788    -0.01900
C1095       C  0.98912280  0.89583897  0.29413718    -0.15600
C1096       C  0.53197841  0.88729706  0.37770469    -0.15300
C1097       C  0.95641404  0.89844323  0.37452404    -0.15700
C1098       C  0.49021036  0.86289041  0.29530749    -0.15700
C1099       C  0.52970260  0.85451622  0.37131296    -0.15300
C1100       C  0.95778813  0.86506574  0.37766986    -0.15600
O1101       O  0.76539909  0.54769246  0.55219462    -0.86700
C1102       C  0.82274899  0.97030077  0.52693197     0.89400
Mg1103     Mg  0.70597734  0.54991267  0.57798238     1.58100
O1104       O  0.78535827  0.00441636  0.41410384    -0.86400
O1105       O  0.79743966  0.56252812  0.48511822    -0.73700
C1106       C  0.60335572  0.94524996  0.44319761     0.94400
O1107       O  0.75844440  0.98731017  0.60855251    -0.73500
O1108       O  0.60374290  0.95943880  0.48545276    -0.81100
Mg1109     Mg  0.80663567  0.51960348  0.59691366     1.58000
C1110       C  0.73110504  0.94530591  0.30925194     0.94300
O1111       O  0.85980300  0.55408791  0.58276348    -0.79300
H1112       H  0.78716279  0.53519137  0.37505932    -0.04700
C1113       C  0.71660627  0.93221770  0.47261036     0.89300
O1114       O  0.68245130  0.55437554  0.49701493    -0.73800
O1115       O  0.81755186  0.99968579  0.51983795    -0.86600
O1116       O  0.76327767  0.94727257  0.33436311    -0.79400
C1117       C  0.87884623  0.96410561  0.40319996     0.94400
C1118       C  0.88688538  0.55807544  0.55030060     0.94300
Mg1119     Mg  0.68371338  0.98187945  0.39832601     1.58000
O1120       O  0.63211992  0.94682381  0.41287969    -0.79300
O1121       O  0.73452010  0.51349530  0.38392644    -0.73600
O1122       O  0.87803524  0.99044575  0.42774333    -0.79400
O1123       O  0.79077231  0.54753208  0.66823305    -0.81100
O1124       O  0.61098931  0.51707062  0.56037998    -0.79400
C1125       C  0.77121254  0.51589198  0.39296976     0.88700
O1126       O  0.67323375  0.50463725  0.47144953    -0.86600
O1127       O  0.72565768  0.95381481  0.44262715    -0.86700
O1128       O  0.69267238  0.93754351  0.50791414    -0.73700
Mg1129     Mg  0.83669077  0.51894587  0.46471059     1.58000
O1130       O  0.84770493  0.94909923  0.39092027    -0.81100
H1131       H  0.76051770  0.59240743  0.52292593    -0.04800
O1132       O  0.70370034  0.49820107  0.57746214    -0.86400
H1133       H  0.70715117  0.96351974  0.61758273    -0.04700
H1134       H  0.65796495  0.54336392  0.42938860    -0.04800
C1135       C  0.72185643  0.98365298  0.60008762     0.88700
C1136       C  0.77414420  0.56861704  0.52086557     0.89300
C1137       C  0.67006970  0.53428621  0.46475596     0.89300
H1138       H  0.73021617  0.90849535  0.46953443    -0.04800
O1139       O  0.81018807  0.94952705  0.49605686    -0.73800
Mg1140     Mg  0.65425199  0.98138404  0.52957301     1.58000
H1141       H  0.83651435  0.96201921  0.56179800    -0.04800
C1142       C  0.75672991  0.55209635  0.68685174     0.94300
O1143       O  0.64294501  0.55513059  0.60246422    -0.81100
C1144       C  0.61106243  0.54266916  0.58680701     0.94400
O1145       O  0.88587997  0.54433591  0.50755376    -0.81100
Mg1146     Mg  0.78480003  0.95210463  0.41624018     1.58200
O1147       O  0.72518919  0.54923033  0.66100079    -0.79400
O1148       O  0.69812445  0.95407848  0.32720456    -0.81100
C1149       C  0.75627085  0.83925659  0.15339142     0.47100
H1150       H  0.75838095  0.81249409  0.15665194    -0.01900
C1151       C  0.74934204  0.90228369  0.14791801     0.47200
H1152       H  0.74650273  0.92913620  0.14600640    -0.01900
C1153       C  0.76169301  0.85616331  0.20418507    -0.15600
C1154       C  0.78719317  0.85522457  0.11914880    -0.15300
C1155       C  0.71580777  0.85163939  0.13377114    -0.15700
C1156       C  0.75816184  0.88923850  0.20130598    -0.15700
C1157       C  0.78244857  0.88851853  0.11585267    -0.15300
C1158       C  0.71256084  0.88459744  0.13046179    -0.15600
O1159       O  0.72839440  0.80317813  0.45616063    -0.86700
C1160       C  0.67739472  0.71532769  0.47511236     0.89400
Mg1161     Mg  0.78846660  0.80837181  0.43293554     1.58100
O1162       O  0.70151265  0.75387110  0.58871101    -0.86400
O1163       O  0.69163301  0.81665038  0.52017585    -0.73700
C1164       C  0.88970128  0.70476478  0.58016720     0.94400
O1165       O  0.74507611  0.73727754  0.39707003    -0.73500
O1166       O  0.89188775  0.71546338  0.53516195    -0.81100
Mg1167     Mg  0.69222232  0.77106414  0.41225295     1.58000
C1168       C  0.76054014  0.70324964  0.70184811     0.94300
O1169       O  0.63592260  0.80301612  0.41933090    -0.79300
H1170       H  0.69631937  0.79271779  0.63250501    -0.04700
C1171       C  0.78209683  0.68754911  0.54026440     0.89300
O1172       O  0.80935596  0.81545014  0.51428952    -0.73800
O1173       O  0.67909564  0.74501840  0.47964232    -0.86600
O1174       O  0.72932980  0.70022024  0.67507603    -0.79400
C1175       C  0.61397989  0.70577517  0.59449392     0.94400
C1176       C  0.60691265  0.80671464  0.44887388     0.94300
Mg1177     Mg  0.80483503  0.74171073  0.61274496     1.58000
O1178       O  0.86028560  0.71061746  0.60772795    -0.79300
O1179       O  0.75211713  0.77509929  0.62757675    -0.73600
O1180       O  0.61360370  0.73064279  0.56545833    -0.79400
O1181       O  0.70654783  0.79702936  0.33938646    -0.81100
O1182       O  0.88537450  0.77887424  0.46007924    -0.79400
C1183       C  0.71553579  0.77419725  0.61746394     0.88700
O1184       O  0.81866946  0.76660790  0.54511979    -0.86600
O1185       O  0.76946632  0.70858297  0.56894940    -0.86700
O1186       O  0.80671593  0.69390297  0.50620928    -0.73700
Mg1187     Mg  0.65511892  0.77210727  0.54120164     1.58000
O1188       O  0.64591855  0.69420227  0.61379883    -0.81100
H1189       H  0.72754838  0.84787599  0.48438270    -0.04800
O1190       O  0.79638186  0.75654532  0.43727928    -0.86400
H1191       H  0.80012338  0.71781785  0.39296510    -0.04700
H1192       H  0.83165202  0.80622430  0.58428832    -0.04800
C1193       C  0.78161807  0.73677935  0.40813254     0.88700
C1194       C  0.71611829  0.82361740  0.48613826     0.89300
C1195       C  0.82095490  0.79629662  0.54924641     0.89300
H1196       H  0.77071447  0.66329299  0.54303336    -0.04800
O1197       O  0.68893237  0.69610907  0.51004260    -0.73800
Mg1198     Mg  0.84324724  0.73803858  0.48496559     1.58000
H1199       H  0.66707308  0.70546107  0.43984890    -0.04800
C1200       C  0.73895243  0.80685668  0.32190493     0.94300
O1201       O  0.85232185  0.81461179  0.41121254    -0.81100
C1202       C  0.88451627  0.80322160  0.43003009     0.94400
O1203       O  0.60645467  0.79397695  0.49259452    -0.81100
Mg1204     Mg  0.70986638  0.70203715  0.59179517     1.58200
O1205       O  0.77023169  0.80834430  0.34896999    -0.79400
O1206       O  0.79140058  0.71624174  0.68530381    -0.81100
C1207       C  0.75229674  0.65146823  0.85582564     0.47100
H1208       H  0.74892360  0.67824788  0.85605127    -0.01900
C1209       C  0.75973764  0.58842159  0.85512719     0.47200
H1210       H  0.76293561  0.56160385  0.85418250    -0.01900
C1211       C  0.75846743  0.63751019  0.80318296    -0.15600
C1212       C  0.78775600  0.63857517  0.88677155    -0.15300
C1213       C  0.71610121  0.63367158  0.87552190    -0.15700
C1214       C  0.76353227  0.60450874  0.80300599    -0.15700
C1215       C  0.79118978  0.60530011  0.88761737    -0.15300
C1216       C  0.71967000  0.60057684  0.87387315    -0.15600
C1217       C  0.75389545  0.65668540  0.75606603    -0.14800
C1218       C  0.76240561  0.68814876  0.75200686    -0.29900
H1219       H  0.74440890  0.64391174  0.72248528     0.14300
H1220       H  0.77575965  0.70098630  0.78319802     0.14800
C1221       C  0.76700229  0.83852412  0.25260899    -0.14800
C1222       C  0.73949313  0.81816727  0.26902948    -0.29900
H1223       H  0.79031255  0.84618097  0.27805529     0.14300
H1224       H  0.71437889  0.81285303  0.24480449     0.14800
C1225       C  0.76097814  0.91004067  0.24619686    -0.14800
C1226       C  0.73181009  0.93062024  0.25877140    -0.29900
H1227       H  0.78493838  0.90498923  0.27281194     0.14300
H1228       H  0.70608410  0.93348002  0.23420719     0.14800
C1229       C  0.75263974  0.56269079  0.73927944    -0.14800
C1230       C  0.77447134  0.58677492  0.75701860    -0.29900
H1231       H  0.72712834  0.55494867  0.76018053     0.14300
H1232       H  0.79693308  0.59717352  0.73333376     0.14800
C1233       C  0.56203371  0.83158516  0.38506254    -0.14800
C1234       C  0.57306135  0.82734108  0.43331966    -0.29900
H1235       H  0.57632872  0.81802596  0.35547075     0.14300
H1236       H  0.55633116  0.83928261  0.46256571     0.14800
C1237       C  0.92211622  0.84595258  0.38848891    -0.14800
C1238       C  0.92207403  0.81909706  0.41736961    -0.29900
H1239       H  0.89440171  0.85508633  0.37266316     0.14300
H1240       H  0.94951012  0.80971406  0.43372942     0.14800
C1241       C  0.92138327  0.91729654  0.39143970    -0.14800
C1242       C  0.91710990  0.94963644  0.38961539    -0.29900
H1243       H  0.89702475  0.90382716  0.40659862     0.14300
H1244       H  0.94113634  0.96528683  0.37965259     0.14800
C1245       C  0.56840694  0.90339506  0.39513249    -0.14800
C1246       C  0.56755420  0.92764988  0.42826093    -0.29900
H1247       H  0.59646177  0.89457238  0.38119355     0.14300
H1248       H  0.53979648  0.93467160  0.44513039     0.14800
C1249       C  0.67715409  0.67890803  0.91247233    -0.14800
C1250       C  0.67859843  0.65040425  0.88869729    -0.29900
H1251       H  0.70425318  0.69076509  0.92336998     0.14300
H1252       H  0.65118749  0.63822961  0.88062830     0.14800
C1253       C  0.83687824  0.66060967  0.94681225    -0.14800
C1254       C  0.81989133  0.66070867  0.90101034    -0.29900
H1255       H  0.82576226  0.64502348  0.97637960     0.14300
H1256       H  0.82851000  0.67864959  0.87324164     0.14800
C1257       C  0.68085552  0.81420678  0.07867837    -0.14800
C1258       C  0.68252609  0.83034366  0.12207006    -0.29900
H1259       H  0.70574600  0.81497348  0.05347147     0.14300
H1260       H  0.65735678  0.83106051  0.14676517     0.14800
C1261       C  0.82875124  0.80565816  0.10022440    -0.14800
C1262       C  0.82247657  0.83789719  0.09858357    -0.29900
H1263       H  0.80567788  0.78932522  0.11120248     0.14300
H1264       H  0.84568623  0.85231975  0.08277685     0.14800
C1265       C  0.01527301  0.82308793  0.23805110    -0.14800
C1266       C  0.48669331  0.84740340  0.24535062    -0.29900
H1267       H  0.53050374  0.81210523  0.26112487     0.14300
H1268       H  0.95986898  0.84595088  0.22897019     0.14800
C1269       C  0.57449633  0.66142244  0.63027565    -0.14800
C1270       C  0.57604716  0.68961268  0.60463272    -0.29900
H1271       H  0.60150901  0.65113030  0.64631376     0.14700
H1272       H  0.54927012  0.69981416  0.58761962     0.14800
C1273       C  0.93596277  0.65813187  0.58601249    -0.14800
C1274       C  0.92267651  0.68657752  0.60353260    -0.29900
H1275       H  0.92242219  0.64790471  0.55262178     0.14300
H1276       H  0.93290471  0.69503597  0.63993925     0.14800
C1277       C  0.93339524  0.58539990  0.60856422    -0.14800
C1278       C  0.92055778  0.57960940  0.56146414    -0.29900
H1279       H  0.91987683  0.57297868  0.63994748     0.14300
H1280       H  0.93641608  0.58978514  0.52998116     0.14800
C1281       C  0.57312021  0.55894694  0.59884407    -0.14800
C1282       C  0.57262241  0.58985734  0.61455868    -0.29900
H1283       H  0.54594838  0.54607923  0.59246079     0.14300
H1284       H  0.60064493  0.60187647  0.61720402     0.14800
C1285       C  0.48012049  0.65338781  0.74846948    -0.14800
C1286       C  0.00971283  0.67430263  0.77536677    -0.29900
H1287       H  0.95109077  0.67139264  0.74905670     0.14300
H1288       H  0.52734663  0.68555662  0.74449161     0.14800
C1289       C  0.82417056  0.55937479  0.93230179    -0.14800
C1290       C  0.82667239  0.58746085  0.90669407    -0.29900
H1291       H  0.79553790  0.55041226  0.94293202     0.14300
H1292       H  0.85536908  0.59772750  0.89975130     0.14800
C1293       C  0.68109783  0.55655310  0.91224936    -0.14800
C1294       C  0.68480882  0.57966098  0.87702312    -0.29900
H1295       H  0.70597456  0.55020943  0.93680622     0.14300
H1296       H  0.65970161  0.58619866  0.85302363     0.14800
C1297       C  0.99818588  0.59620404  0.75584453    -0.14800
C1298       C  0.98446823  0.56679384  0.76642513    -0.29900
H1299       H  0.45070706  0.58552296  0.75336562     0.14300
H1300       H  0.96774551  0.55364520  0.73832229     0.14800
C1301       C  0.80894702  0.91077406  0.08914252    -0.14800
C1302       C  0.84626390  0.91295621  0.10485335    -0.29900
H1303       H  0.79717861  0.92655510  0.05944556     0.14300
H1304       H  0.85627133  0.89772993  0.13636312     0.14800
C1305       C  0.68005492  0.92614232  0.07776260    -0.14800
C1306       C  0.67707681  0.90209360  0.11166101    -0.29900
H1307       H  0.70848675  0.93164849  0.06180044     0.14300
H1308       H  0.64839972  0.89454080  0.12452448     0.14800
C1309       C  0.98744179  0.91316572  0.24541142    -0.14800
C1310       C  0.01415394  0.93541240  0.23304353    -0.29900
H1311       H  0.96691727  0.90445696  0.21705832     0.14300
H1312       H  0.54648446  0.93487056  0.26580262     0.14800
loop_ 
_geom_bond_atom_site_label_1 
_geom_bond_atom_site_label_2 
_geom_bond_distance 
_geom_bond_site_symmetry_2 
_ccdc_geom_bond_type 
O1           C36   1.236       .  S
O1           Mg9   2.162       .  S
O1         Mg659   2.142       .  S
C2           O15   1.235       .  S
C2           O39   1.270       .  A
C2           H41   1.081       .  S
Mg3          O32   2.161       .  S
Mg3         O657   2.140   1_455  S
Mg3          O47   2.271       .  S
Mg3          O43   2.250       .  S
Mg3          O14   2.285       .  S
O4          C353   1.235       .  S
O4          Mg46   2.152       .  S
O4         Mg357   2.134       .  S
O5           C36   1.269   1_554  A
O5          Mg29   2.297       .  S
C6            O8   1.272       .  A
C6           O20   1.274       .  A
C6          C321   1.473       .  S
O7          C691   1.273       .  A
O7         Mg337   2.311       .  S
O8          Mg40   2.283   1_554  S
Mg9         O343   2.124   1_545  S
Mg9          O23   2.236       .  S
Mg9          O11   2.300       .  S
Mg9         O335   2.288   1_545  S
C10          O48   1.268       .  A
C10         O672   1.268   1_455  A
C10         C982   1.467       .  S
O11          C18   1.275       .  A
H12          C25   1.081       .  S
C13          O27   1.237       .  S
C13          O28   1.271   1_554  A
C13          H38   1.081       .  S
O14          C37   1.267   1_556  A
O15        Mg337   2.150       .  S
O15        Mg357   2.146   1_556  S
O16         C666   1.276       .  A
O16         Mg46   2.299       .  S
C17          O30   1.273       .  A
C17          O22   1.274       .  A
C17         C318   1.479       .  S
C18          O45   1.272       .  A
C18         C305   1.475       .  S
Mg19         O27   2.153       .  S
Mg19        O354   2.115       .  S
Mg19         O20   2.291       .  S
Mg19         O48   2.262       .  S
Mg19        O349   2.302       .  S
O21         C681   1.273       .  A
O21        Mg347   2.303   1_645  S
O22        Mg357   2.315       .  S
O23          C42   1.268       .  A
O24          C44   1.278       .  A
O24        Mg368   2.321   1_545  S
C25         O332   1.237   1_545  S
C25         O677   1.272       .  A
O26          C37   1.234       .  S
O26        Mg347   2.118   1_545  S
O26        Mg368   2.150   1_544  S
O27        Mg702   2.128   1_455  S
O28         Mg40   2.304       .  S
Mg29        O332   2.147   1_545  S
Mg29        O343   2.144   1_544  S
Mg29         O45   2.270   1_554  S
Mg29        O350   2.312   1_545  S
O30         Mg46   2.245       .  S
H31          C36   1.082       .  S
O32         C363   1.239   1_545  S
O32        Mg368   2.154   1_545  S
H33          C35   1.081       .  S
H34          C37   1.081       .  S
C35         O360   1.240       .  S
C35         O663   1.274       .  A
O39         Mg46   2.300   1_556  S
Mg40        O354   2.140   1_556  S
Mg40        O360   2.151       .  S
Mg40        O352   2.297       .  S
C42         O703   1.277       .  A
C42         C314   1.462       .  S
O43          C44   1.271       .  A
C44         C309   1.472       .  S
Mg46        O683   2.119       .  S
O47         C698   1.272   1_455  A
C49          C55   1.534       .  S
C49          C53   1.533       .  S
C49         C710   1.529       .  S
C49         H706   1.109       .  S
H50         C705   1.111       .  S
C51          C58   1.545       .  S
C51         C713   1.539       .  S
C51         C712   1.537       .  S
C51          H52   1.111       .  S
C53         C313   1.481       .  S
C53         C712   1.371       .  D
C54         C705   1.532   1_455  S
C54         C298   1.483       .  S
C54          C57   1.374       .  D
C55         C293   1.482       .  S
C55          C58   1.376       .  D
C56         C707   1.534       .  S
C56         C301   1.479       .  S
C56         C709   1.373       .  D
C57         C707   1.545   1_455  S
C57         C285   1.490       .  S
C58         C289   1.486       .  S
O59          C94   1.234       .  S
O59         Mg67   2.140       .  S
O59        Mg717   2.103   1_455  S
C60          O73   1.235       .  S
C60          O97   1.268       .  A
C60          H99   1.081       .  S
Mg61         O90   2.136       .  S
Mg61        O715   2.104       .  S
Mg61        O105   2.292       .  S
Mg61        O101   2.192       .  S
Mg61         O72   2.301   1_554  S
O62          C83   1.239       .  S
O62        Mg104   2.164       .  S
O62         Mg87   2.179       .  S
O63          C94   1.266   1_556  A
O63         Mg87   2.287       .  S
C64          O66   1.267       .  A
C64          O78   1.283       .  A
C64         C269   1.478       .  S
O65         C749   1.271       .  A
O65         Mg67   2.295   1_655  S
O66         Mg98   2.234   1_556  S
Mg67         O73   2.132       .  S
Mg67         O81   2.271       .  S
Mg67         O69   2.253       .  S
C68         O106   1.275       .  A
C68         O730   1.274       .  A
C68         C302   1.474       .  S
O69          C76   1.268       .  A
H70          C83   1.081       .  S
C71          O85   1.235       .  S
C71          O86   1.270   1_556  A
C71          H96   1.082       .  S
O72          C95   1.271       .  A
O73         Mg87   2.173   1_554  S
O74         C724   1.274       .  A
O74        Mg104   2.301       .  S
C75          O88   1.275       .  A
C75          O80   1.279       .  A
C75         C265   1.487       .  S
C76         O103   1.282       .  A
C76         C273   1.475       .  S
Mg77         O84   2.141       .  S
Mg77         O85   2.145       .  S
Mg77         O78   2.364       .  S
Mg77         O79   2.313       .  S
Mg77        O106   2.269       .  S
O79         C739   1.273       .  A
O80         Mg87   2.340       .  S
O81         C756   1.271   1_455  A
O82         C102   1.271       .  A
O82         Mg98   2.310       .  S
C83         O735   1.275       .  A
O84          C95   1.237       .  S
O84         Mg98   2.150   1_556  S
O85        Mg760   2.161       .  S
O86         Mg98   2.307       .  S
Mg87        O103   2.330   1_556  S
O88        Mg104   2.271       .  S
H89          C94   1.081       .  S
O90          C93   1.239       .  S
O90         Mg98   2.142       .  S
H91          C93   1.081       .  S
H92          C95   1.081       .  S
C93         O721   1.274       .  A
O97        Mg104   2.286   1_554  S
C100        O105   1.268       .  A
C100        O737   1.270       .  A
C100        C281   1.470       .  S
O101        C102   1.264       .  A
C102        C277   1.469       .  S
Mg104       O741   2.169   1_455  S
C107        C113   1.535       .  S
C107        C111   1.531       .  S
C107        C768   1.528       .  S
C107        H764   1.108       .  S
H108        C763   1.111       .  S
C109        C116   1.535       .  S
C109        C771   1.542       .  S
C109        C770   1.539       .  S
C109        H110   1.111       .  S
C111        C325   1.480       .  S
C111        C770   1.372       .  D
C112        C763   1.529   1_455  S
C112        C261   1.475       .  S
C112        C115   1.369       .  D
C113        C257   1.480       .  S
C113        C116   1.371       .  D
C114        C765   1.524       .  S
C114        C282   1.476       .  S
C114        C767   1.369   1_455  D
C115        C765   1.536       .  S
C115        C249   1.474       .  S
C116        C253   1.482       .  S
O117        C152   1.237       .  S
O117       Mg119   2.145       .  S
O117       Mg125   2.157       .  S
C118        O131   1.236       .  S
C118        O155   1.269       .  A
C118        H157   1.081       .  S
Mg119       O148   2.150       .  S
Mg119       O163   2.324       .  S
Mg119       O159   2.274       .  S
Mg119       O130   2.297       .  S
O120        C469   1.237       .  S
O120       Mg162   2.162       .  S
O120       Mg473   2.155       .  S
O121        C152   1.271       .  A
O121       Mg145   2.296       .  S
C122        O124   1.271       .  A
C122        O136   1.276       .  A
C122        C262   1.470       .  S
O123        C151   1.270       .  A
O123       Mg453   2.295       .  S
O124       Mg156   2.261       .  S
Mg125       O459   2.137   1_545  S
Mg125       O139   2.275       .  S
Mg125       O127   2.325       .  S
Mg125       O451   2.300   1_545  S
C126        O164   1.271       .  A
C126        O132   1.276       .  A
C126        C242   1.477       .  S
O127        C134   1.280       .  A
H128        C141   1.081       .  S
C129        O143   1.236       .  S
C129        O144   1.268       .  A
C129        H154   1.081       .  S
O130        C153   1.270       .  A
O131       Mg453   2.121       .  S
O131       Mg473   2.141       .  S
O132       Mg162   2.296       .  S
C133        O146   1.272       .  A
C133        O138   1.271       .  A
C133        C258   1.470       .  S
C134        O161   1.271       .  A
C134        C294   1.478       .  S
Mg135       O143   2.155       .  S
Mg135       O470   2.123       .  S
Mg135       O136   2.299       .  S
Mg135       O164   2.270       .  S
Mg135       O465   2.302       .  S
O137        C141   1.269       .  A
O137       Mg463   2.290   1_545  S
O138       Mg473   2.286       .  S
O139        C158   1.274       .  A
O140        C160   1.275       .  A
O140       Mg484   2.312   1_545  S
C141        O448   1.236       .  S
O142        C153   1.237       .  S
O142       Mg463   2.135   1_545  S
O142       Mg484   2.158   1_545  S
O143       Mg162   2.126       .  S
O144       Mg156   2.286       .  S
Mg145       O448   2.136       .  S
Mg145       O459   2.162   1_545  S
Mg145       O161   2.261       .  S
Mg145       O466   2.311   1_545  S
O146       Mg162   2.246       .  S
H147        C152   1.082       .  S
O148        C479   1.237   1_545  S
O148       Mg484   2.150   1_545  S
H149        C151   1.081       .  S
H150        C153   1.081       .  S
C151        O476   1.236       .  S
O155       Mg162   2.292       .  S
Mg156       O470   2.162       .  S
Mg156       O476   2.139       .  S
Mg156       O468   2.299       .  S
C158        O163   1.279       .  A
C158        C245   1.482       .  S
O159        C160   1.276       .  A
C160        C297   1.482       .  S
C165        C171   1.529       .  S
C165        C170   1.528       .  S
C165        C169   1.539       .  S
C165        H166   1.111       .  S
C167        C173   1.536       .  S
C167        C172   1.534       .  S
C167        C174   1.541       .  S
C167        H168   1.111       .  S
C169        C237   1.483       .  S
C169        C172   1.369       .  D
C170        C278   1.472       .  S
C170        C173   1.373       .  D
C171        C274   1.484       .  S
C171        C174   1.376       .  D
C172        C241   1.478       .  S
C173        C317   1.476       .  S
C174        C322   1.481       .  S
O175        C210   1.238       .  S
O175       Mg177   2.152       .  S
O175       Mg183   2.146       .  S
C176        O189   1.236       .  S
C176        O213   1.269       .  A
C176        H215   1.081       .  S
Mg177       O206   2.157       .  S
Mg177       O221   2.341       .  S
Mg177       O217   2.270       .  S
Mg177       O188   2.295       .  S
O178        C199   1.235       .  S
O178       Mg220   2.152       .  S
O178       Mg203   2.116       .  S
O179        C210   1.273       .  A
O179       Mg203   2.309       .  S
C180        O182   1.276       .  A
C180        O194   1.271       .  A
C180        C290   1.471       .  S
O181        C209   1.272       .  A
O181       Mg183   2.307       .  S
O182       Mg214   2.301       .  S
Mg183       O189   2.132       .  S
Mg183       O197   2.248       .  S
Mg183       O185   2.316       .  S
C184        O222   1.270       .  A
C184        O190   1.277       .  A
C184        C234   1.471       .  S
O185        C192   1.276       .  A
H186        C199   1.081       .  S
C187        O201   1.237       .  S
C187        O202   1.269       .  A
C187        H212   1.082       .  S
O188        C211   1.269       .  A
O189       Mg203   2.145       .  S
O190       Mg220   2.299       .  S
C191        O204   1.275       .  A
C191        O196   1.271       .  A
C191        C286   1.478       .  S
C192        O219   1.265       .  A
C192        C250   1.462       .  S
Mg193       O200   2.133       .  S
Mg193       O201   2.167       .  S
Mg193       O194   2.275       .  S
Mg193       O195   2.282       .  S
Mg193       O222   2.252       .  S
O195        C199   1.267       .  A
O196       Mg203   2.290       .  S
O197        C216   1.269       .  A
O198        C218   1.277       .  A
O198       Mg214   2.325       .  S
O200        C211   1.235       .  S
O200       Mg214   2.165       .  S
O201       Mg220   2.137       .  S
O202       Mg214   2.290       .  S
Mg203       O219   2.224       .  S
O204       Mg220   2.271       .  S
H205        C210   1.081       .  S
O206        C209   1.237       .  S
O206       Mg214   2.166       .  S
H207        C209   1.081       .  S
H208        C211   1.081       .  S
O213       Mg220   2.292       .  S
C216        O221   1.280       .  A
C216        C238   1.481       .  S
O217        C218   1.277       .  A
C218        C254   1.484       .  S
C223        C229   1.549       .  S
C223        C228   1.547       .  S
C223        C227   1.540       .  S
C223        H224   1.108       .  S
C225        C231   1.530       .  S
C225        C230   1.536       .  S
C225        C232   1.533       .  S
C225        H226   1.112       .  S
C227        C233   1.477       .  S
C227        C230   1.372       .  D
C228        C270   1.489       .  S
C228        C231   1.367       .  D
C229        C266   1.501       .  S
C229        C232   1.382       .  D
C230        C246   1.487       .  S
C231        C306   1.477       .  S
C232        C310   1.482       .  S
C233        C234   1.339       .  D
C233        H235   1.086       .  S
C234        H236   1.087       .  S
C237        C238   1.338       .  D
C237        H239   1.086       .  S
C238        H240   1.088       .  S
C241        C242   1.341       .  D
C241        H243   1.087       .  S
C242        H244   1.087       .  S
C245        C246   1.344       .  D
C245        H247   1.087       .  S
C246        H248   1.086       .  S
C249        C250   1.334       .  D
C249        H251   1.087       .  S
C250        H252   1.087       .  S
C253        C254   1.341       .  D
C253        H255   1.086       .  S
C254        H256   1.087       .  S
C257        C258   1.339       .  D
C257        H259   1.084       .  S
C258        H260   1.086       .  S
C261        C262   1.339       .  D
C261        H263   1.086       .  S
C262        H264   1.087       .  S
C265        C266   1.346       .  D
C265        H267   1.084       .  S
C266        H268   1.083       .  S
C269        C270   1.336       .  D
C269        H271   1.087       .  S
C270        H272   1.086       .  S
C273        C274   1.334       .  D
C273        H275   1.088       .  S
C274        H276   1.086       .  S
C277        C278   1.342       .  D
C277        H279   1.086       .  S
C278        H280   1.084       .  S
C281        C938   1.337       .  D
C281        H939   1.087       .  S
C282        C937   1.337   1_455  D
C282        H940   1.086       .  S
H283        C937   1.088       .  S
H284        C938   1.088       .  S
C285        C286   1.338       .  D
C285        H287   1.083       .  S
C286        H288   1.085       .  S
C289        C290   1.339       .  D
C289        H291   1.085       .  S
C290        H292   1.087       .  S
C293        C294   1.339       .  D
C293        H295   1.087       .  S
C294        H296   1.087       .  S
C297        C298   1.340       .  D
C297        H299   1.087       .  S
C298        H300   1.086       .  S
C301        C958   1.341   1_655  D
C301        H959   1.086       .  S
C302        C957   1.338       .  D
C302        H960   1.087       .  S
H303        C957   1.087       .  S
H304        C958   1.088       .  S
C305        C306   1.342       .  D
C305        H307   1.087       .  S
C306        H308   1.086       .  S
C309        C310   1.342       .  D
C309        H311   1.088       .  S
C310        H312   1.086       .  S
C313        C314   1.338       .  D
C313        H971   1.088       .  S
C314        H316   1.085       .  S
H315        C969   1.085   1_455  S
C317        C318   1.340       .  D
C317        H319   1.085       .  S
C318        H320   1.087       .  S
C321        C322   1.343       .  D
C321        H323   1.086       .  S
C322        H324   1.084       .  S
C325        C326   1.341       .  D
C325        H327   1.088       .  S
C326        C666   1.464       .  S
C326        H984   1.085       .  S
H328        C982   1.087       .  S
O329        C364   1.237       .  S
O329       Mg987   2.161       .  S
O329       Mg337   2.138       .  S
C330        O343   1.235       .  S
C330        O367   1.269   1_556  A
C330        H369   1.081       .  S
Mg331       O985   2.142   1_455  S
Mg331       O360   2.159       .  S
Mg331       O375   2.316       .  S
Mg331       O371   2.283       .  S
Mg331       O342   2.294   1_556  S
O332       Mg374   2.143       .  S
O333        C364   1.273       .  A
O333       Mg357   2.315   1_556  S
C334        O336   1.275       .  A
C334        O348   1.275       .  A
C334        C649   1.475       .  S
O335       C1019   1.269       .  A
O336       Mg368   2.289   1_554  S
Mg337       O351   2.271       .  S
Mg337       O339   2.330       .  S
C338        O376   1.269       .  A
C338       O1000   1.268   1_455  A
C338       C1310   1.473       .  S
O339        C346   1.278       .  A
H340        C353   1.081       .  S
C341        O355   1.236       .  S
C341        O356   1.269   1_554  A
C341        H366   1.081       .  S
O342        C365   1.269       .  A
O344        C994   1.271       .  A
O344       Mg374   2.268       .  S
C345        O358   1.266       .  A
C345        O350   1.275       .  A
C345        C646   1.459       .  S
C346        O373   1.268       .  A
C346        C633   1.470       .  S
Mg347       O355   2.151       .  S
Mg347       O348   2.288       .  S
Mg347       O376   2.273       .  S
O349       C1009   1.272   1_455  A
O351        C370   1.273       .  A
O352        C372   1.273       .  A
C353       O1005   1.267       .  A
O354        C365   1.236       .  S
O355      Mg1030   2.121   1_455  S
O356       Mg368   2.296       .  S
Mg357       O373   2.240   1_554  S
O358       Mg374   2.229       .  S
H359        C364   1.081       .  S
H361        C363   1.081       .  S
H362        C365   1.081       .  S
C363        O991   1.273   1_455  A
O367       Mg374   2.298       .  S
C370       O1031   1.274       .  A
C370        C642   1.474       .  S
O371        C372   1.275       .  A
C372        C637   1.467       .  S
Mg374      O1011   2.124       .  S
O375       C1026   1.278   1_455  A
C377        C383   1.543       .  S
C377       C1038   1.545       .  S
C377        C381   1.537       .  S
C377       H1034   1.109       .  S
H378       C1033   1.111       .  S
C379       C1041   1.536       .  S
C379       C1040   1.535       .  S
C379        C386   1.532       .  S
C379        H380   1.111       .  S
C381        C641   1.477       .  S
C381       C1040   1.370       .  D
C382       C1033   1.539       .  S
C382        C626   1.482       .  S
C382        C385   1.372       .  D
C383        C621   1.487       .  S
C383        C386   1.377       .  D
C384       C1035   1.537       .  S
C384        C629   1.481       .  S
C384       C1037   1.370       .  D
C385       C1035   1.538   1_455  S
C385        C613   1.493       .  S
C386        C617   1.481       .  S
O387        C422   1.236       .  S
O387      Mg1045   2.149   1_455  S
O387       Mg395   2.155       .  S
C388        O401   1.236       .  S
C388        O425   1.269       .  A
C388        H427   1.081       .  S
Mg389      O1043   2.153       .  S
Mg389       O418   2.166       .  S
Mg389       O433   2.318       .  S
Mg389       O429   2.298       .  S
Mg389       O400   2.294   1_554  S
O390        C411   1.238       .  S
O390       Mg432   2.150       .  S
O390       Mg415   2.138       .  S
O391        C422   1.270   1_556  A
O391       Mg415   2.302       .  S
C392        O394   1.271       .  A
C392        O406   1.278       .  A
C392        C597   1.480       .  S
O393       C1077   1.271   1_455  A
O393       Mg395   2.297       .  S
O394       Mg426   2.267   1_556  S
Mg395       O401   2.123       .  S
Mg395       O409   2.245       .  S
Mg395       O397   2.321       .  S
C396        O434   1.274       .  A
C396       O1058   1.271       .  A
C396        C630   1.468       .  S
O397        C404   1.278       .  A
H398        C411   1.081       .  S
C399        O413   1.236       .  S
C399        O414   1.271   1_556  A
C399        H424   1.081       .  S
O400        C423   1.270       .  A
O401       Mg415   2.150   1_554  S
O402       C1052   1.268       .  A
O402       Mg432   2.256       .  S
C403        O416   1.269       .  A
C403        O408   1.271       .  A
C403        C593   1.476       .  S
C404        O431   1.269       .  A
C404        C601   1.474       .  S
Mg405       O412   2.146       .  S
Mg405       O413   2.146       .  S
Mg405       O406   2.313       .  S
Mg405       O407   2.305       .  S
Mg405       O434   2.281       .  S
O407       C1067   1.271       .  A
O408       Mg415   2.301       .  S
O409       C1084   1.270       .  A
O410        C430   1.273       .  A
O410       Mg426   2.302       .  S
C411       O1063   1.272   1_455  A
O412        C423   1.236       .  S
O412       Mg426   2.161   1_556  S
O413      Mg1088   2.150       .  S
O414       Mg426   2.303       .  S
Mg415       O431   2.249   1_556  S
O416       Mg432   2.237       .  S
H417        C422   1.081       .  S
O418        C421   1.237       .  S
O418       Mg426   2.147       .  S
H419        C421   1.081       .  S
H420        C423   1.081       .  S
C421       O1049   1.270       .  A
O425       Mg432   2.287   1_554  S
C428       O1065   1.272       .  A
C428        O433   1.278       .  A
C428        C609   1.474       .  S
O429        C430   1.278       .  A
C430        C605   1.485       .  S
Mg432      O1069   2.125   1_455  S
C435        C441   1.539       .  S
C435       C1096   1.537       .  S
C435        C439   1.535       .  S
C435       H1092   1.108       .  S
H436       C1091   1.108       .  S
C437       C1099   1.533       .  S
C437       C1098   1.530       .  S
C437        C444   1.541       .  S
C437        H438   1.111       .  S
C439        C653   1.464       .  S
C439       C1098   1.369       .  D
C440       C1091   1.527   1_455  S
C440        C589   1.480       .  S
C440        C443   1.369       .  D
C441        C585   1.493       .  S
C441        C444   1.379       .  D
C442       C1093   1.535       .  S
C442        C610   1.476       .  S
C442       C1095   1.368       .  D
C443       C1093   1.544   1_455  S
C443        C577   1.479       .  S
C444        C581   1.483       .  S
O445        C480   1.236       .  S
O445       Mg447   2.154       .  S
O445       Mg453   2.160       .  S
C446        O459   1.237       .  S
C446        O483   1.270       .  A
C446        H485   1.081       .  S
Mg447       O476   2.151       .  S
Mg447       O491   2.287       .  S
Mg447       O487   2.282       .  S
Mg447       O458   2.287       .  S
O448       Mg490   2.156   1_545  S
O449        C480   1.271       .  A
O449       Mg473   2.303       .  S
C450        O452   1.272       .  A
C450        O464   1.276       .  A
C450        C590   1.474       .  S
O451        C479   1.271       .  A
O452       Mg484   2.272       .  S
Mg453       O467   2.239       .  S
Mg453       O455   2.326       .  S
C454        O492   1.272       .  A
C454        O460   1.278       .  A
C454        C570   1.476       .  S
O455        C462   1.278       .  A
H456        C469   1.081       .  S
C457        O471   1.237       .  S
C457        O472   1.270       .  A
C457        H482   1.081       .  S
O458        C481   1.268       .  A
O460       Mg490   2.314       .  S
C461        O474   1.274       .  A
C461        O466   1.275       .  A
C461        C586   1.473       .  S
C462        O489   1.271       .  A
C462        C622   1.481       .  S
Mg463       O471   2.161       .  S
Mg463       O464   2.303       .  S
Mg463       O492   2.264       .  S
O465        C469   1.272       .  A
O467        C486   1.269       .  A
O468        C488   1.273       .  A
O470        C481   1.236       .  S
O471       Mg490   2.133       .  S
O472       Mg484   2.291       .  S
Mg473       O489   2.277       .  S
O474       Mg490   2.260       .  S
H475        C480   1.080       .  S
H477        C479   1.081       .  S
H478        C481   1.081       .  S
O483       Mg490   2.290       .  S
C486        O491   1.275       .  A
C486        C573   1.463       .  S
O487        C488   1.277       .  A
C488        C625   1.480       .  S
C493        C499   1.544       .  S
C493        C498   1.549       .  S
C493        C497   1.534       .  S
C493        H494   1.110       .  S
C495        C501   1.529       .  S
C495        C500   1.538       .  S
C495        C502   1.527       .  S
C495        H496   1.112       .  S
C497        C565   1.478       .  S
C497        C500   1.370       .  D
C498        C606   1.497       .  S
C498        C501   1.373       .  D
C499        C602   1.478       .  S
C499        C502   1.369       .  D
C500        C569   1.479       .  S
C501        C645   1.470       .  S
C502        C650   1.478       .  S
O503        C538   1.237       .  S
O503       Mg505   2.150       .  S
O503       Mg511   2.155       .  S
C504        O517   1.237       .  S
C504        O541   1.272       .  A
C504        H543   1.081       .  S
Mg505       O534   2.151       .  S
Mg505       O549   2.291       .  S
Mg505       O545   2.272       .  S
Mg505       O516   2.279       .  S
O506        C527   1.238       .  S
O506       Mg548   2.147       .  S
O506       Mg531   2.146       .  S
O507        C538   1.272       .  A
O507       Mg531   2.310       .  S
C508        O510   1.269       .  A
C508        O522   1.276       .  A
C508        C618   1.470       .  S
O509        C537   1.269       .  A
O509       Mg511   2.291       .  S
O510       Mg542   2.252       .  S
Mg511       O517   2.160       .  S
Mg511       O525   2.287       .  S
Mg511       O513   2.321       .  S
C512        O550   1.269       .  A
C512        O518   1.279       .  A
C512        C562   1.474       .  S
O513        C520   1.278       .  A
H514        C527   1.081       .  S
C515        O529   1.237       .  S
C515        O530   1.270       .  A
C515        H540   1.080       .  S
O516        C539   1.267       .  A
O517       Mg531   2.150       .  S
O518       Mg548   2.324       .  S
C519        O532   1.275       .  A
C519        O524   1.275       .  A
C519        C614   1.489       .  S
C520        O547   1.270       .  A
C520        C578   1.473       .  S
Mg521       O528   2.110       .  S
Mg521       O529   2.155       .  S
Mg521       O522   2.307       .  S
Mg521       O523   2.303       .  S
Mg521       O550   2.239       .  S
O523        C527   1.272       .  A
O524       Mg531   2.327       .  S
O525        C544   1.275       .  A
O526        C546   1.271       .  A
O526       Mg542   2.287       .  S
O528        C539   1.235       .  S
O528       Mg542   2.157       .  S
O529       Mg548   2.137       .  S
O530       Mg542   2.287       .  S
Mg531       O547   2.255       .  S
O532       Mg548   2.271       .  S
H533        C538   1.082       .  S
O534        C537   1.236       .  S
O534       Mg542   2.128       .  S
H535        C537   1.081       .  S
H536        C539   1.081       .  S
O541       Mg548   2.309       .  S
C544        O549   1.275       .  A
C544        C566   1.479       .  S
O545        C546   1.276       .  A
C546        C582   1.475       .  S
C551        C557   1.543       .  S
C551        C556   1.539       .  S
C551        C555   1.536       .  S
C551        H552   1.111       .  S
C553        C559   1.532       .  S
C553        C558   1.530       .  S
C553        C560   1.531       .  S
C553        H554   1.111       .  S
C555        C561   1.474       .  S
C555        C558   1.368       .  D
C556        C598   1.479       .  S
C556        C559   1.365       .  D
C557        C594   1.479       .  S
C557        C560   1.382       .  D
C558        C574   1.471       .  S
C559        C634   1.480       .  S
C560        C638   1.490       .  S
C561        C562   1.336       .  D
C561        H563   1.086       .  S
C562        H564   1.088       .  S
C565        C566   1.345       .  D
C565        H567   1.086       .  S
C566        H568   1.087       .  S
C569        C570   1.340       .  D
C569        H571   1.086       .  S
C570        H572   1.087       .  S
C573        C574   1.337       .  D
C573        H575   1.087       .  S
C574        H576   1.087       .  S
C577        C578   1.337       .  D
C577        H579   1.087       .  S
C578        H580   1.087       .  S
C581        C582   1.337       .  D
C581        H583   1.086       .  S
C582        H584   1.086       .  S
C585        C586   1.342       .  D
C585        H587   1.086       .  S
C586        H588   1.083       .  S
C589        C590   1.342       .  D
C589        H591   1.086       .  S
C590        H592   1.087       .  S
C593        C594   1.340       .  D
C593        H595   1.086       .  S
C594        H596   1.086       .  S
C597        C598   1.340       .  D
C597        H599   1.087       .  S
C598        H600   1.086       .  S
C601        C602   1.337       .  D
C601        H603   1.087       .  S
C602        H604   1.086       .  S
C605        C606   1.341       .  D
C605        H607   1.085       .  S
C606        H608   1.086       .  S
C609       C1266   1.340       .  D
C609       H1267   1.087       .  S
C610       C1265   1.337   1_655  D
C610       H1268   1.086       .  S
H611       C1265   1.088       .  S
H612       C1266   1.086       .  S
C613        C614   1.344       .  D
C613        H615   1.083       .  S
C614        H616   1.086       .  S
C617        C618   1.339       .  D
C617        H619   1.087       .  S
C618        H620   1.087       .  S
C621        C622   1.340       .  D
C621        H623   1.087       .  S
C622        H624   1.087       .  S
C625        C626   1.338       .  D
C625        H627   1.087       .  S
C626        H628   1.085       .  S
C629       C1286   1.335   1_655  D
C629       H1287   1.086       .  S
C630       C1285   1.338       .  D
C630       H1288   1.087       .  S
H631       C1285   1.087       .  S
H632       C1286   1.088       .  S
C633        C634   1.336       .  D
C633        H635   1.087       .  S
C634        H636   1.086       .  S
C637        C638   1.339       .  D
C637        H639   1.085       .  S
C638        H640   1.087       .  S
C641        C642   1.340       .  D
C641       H1299   1.087       .  S
C642        H644   1.088       .  S
H643       C1297   1.086   1_455  S
C645        C646   1.333       .  D
C645        H647   1.087       .  S
C646        H648   1.088       .  S
C649        C650   1.344       .  D
C649        H651   1.087       .  S
C650        H652   1.086       .  S
C653        C654   1.338       .  D
C653        H655   1.086       .  S
C654        C994   1.469       .  S
C654       H1312   1.087       .  S
H656       C1310   1.087       .  S
O657        C692   1.235       .  S
O657       Mg665   2.156       .  S
C658        O671   1.234       .  S
C658        O695   1.267       .  A
C658        H697   1.081       .  S
Mg659       O688   2.161   1_545  S
Mg659       O703   2.303       .  S
Mg659       O699   2.283       .  S
Mg659       O670   2.286   1_556  S
O660       C1009   1.238       .  S
O660       Mg702   2.153       .  S
O660      Mg1013   2.146       .  S
O661        C692   1.270   1_554  A
O661       Mg685   2.303       .  S
C662        O664   1.273       .  A
C662        O676   1.267       .  A
C662        C977   1.459       .  S
O663       Mg993   2.301   1_455  S
O664       Mg696   2.275   1_554  S
Mg665       O999   2.123   1_545  S
Mg665       O991   2.302   1_545  S
Mg665       O679   2.261       .  S
Mg665       O667   2.293       .  S
C666        O704   1.267       .  A
O667        C674   1.276       .  A
H668        C681   1.081       .  S
C669        O683   1.236       .  S
C669        O684   1.268   1_554  A
C669        H694   1.081       .  S
O670        C693   1.267       .  A
O671       Mg993   2.120       .  S
O671      Mg1013   2.145   1_556  S
O672       Mg702   2.245       .  S
C673        O686   1.266       .  A
C673        O678   1.279       .  A
C673        C974   1.469       .  S
C674        O701   1.277       .  A
C674        C961   1.481       .  S
Mg675      O1010   2.120       .  S
Mg675       O683   2.167       .  S
Mg675       O676   2.251       .  S
Mg675      O1005   2.284       .  S
Mg675       O704   2.239       .  S
O677      Mg1003   2.306   1_545  S
O678      Mg1013   2.341       .  S
O679        C698   1.268       .  A
O680        C700   1.269       .  A
O680      Mg1024   2.270   1_545  S
C681        O988   1.239   1_545  S
O682        C693   1.235       .  S
O682      Mg1003   2.113   1_545  S
O682      Mg1024   2.147   1_544  S
O684       Mg696   2.283       .  S
Mg685       O988   2.152   1_545  S
Mg685       O999   2.154   1_544  S
Mg685      O1006   2.353   1_545  S
Mg685       O701   2.300   1_554  S
O686       Mg702   2.217       .  S
H687        C692   1.081       .  S
O688       C1019   1.236       .  S
O688      Mg1024   2.134       .  S
H689        C691   1.081       .  S
H690        C693   1.081       .  S
C691       O1016   1.237       .  S
O695       Mg702   2.282   1_556  S
Mg696      O1010   2.172   1_556  S
Mg696      O1016   2.149       .  S
Mg696      O1008   2.306       .  S
C698        C970   1.470       .  S
O699        C700   1.278       .  A
C700        C965   1.473       .  S
C705        C711   1.535       .  S
C705        C709   1.533       .  S
C707        C714   1.542       .  S
C707        H708   1.109       .  S
C709        C969   1.477       .  S
C710        C954   1.469       .  S
C710        C713   1.368       .  D
C711        C949   1.482       .  S
C711        C714   1.375       .  D
C712        C957   1.475       .  S
C713        C941   1.490       .  S
C714        C945   1.488       .  S
O715        C750   1.235       .  S
O715       Mg723   2.118       .  S
C716        O729   1.236       .  S
C716        O753   1.269       .  A
C716        H755   1.081       .  S
Mg717       O746   2.157       .  S
Mg717       O761   2.268       .  S
Mg717       O757   2.177       .  S
Mg717       O728   2.284   1_554  S
O718        C739   1.237       .  S
O718       Mg760   2.149       .  S
O718       Mg743   2.162       .  S
O719        C750   1.268   1_556  A
O719       Mg743   2.291       .  S
C720        O722   1.269       .  A
C720        O734   1.285       .  A
C720        C925   1.481       .  S
O721       Mg723   2.311       .  S
O722       Mg754   2.239   1_556  S
Mg723       O729   2.131       .  S
Mg723       O737   2.269       .  S
Mg723       O725   2.264       .  S
C724        O762   1.274   1_455  A
C724        C958   1.474       .  S
O725        C732   1.269       .  A
H726        C739   1.081       .  S
C727        O741   1.235       .  S
C727        O742   1.270   1_556  A
C727        H752   1.081       .  S
O728        C751   1.267       .  A
O729       Mg743   2.169   1_554  S
O730       Mg760   2.308       .  S
C731        O744   1.274       .  A
C731        O736   1.278       .  A
C731        C921   1.483       .  S
C732        O759   1.279       .  A
C732        C929   1.470       .  S
Mg733       O740   2.126       .  S
Mg733       O741   2.154       .  S
Mg733       O734   2.374       .  S
Mg733       O735   2.318   1_655  S
Mg733       O762   2.266       .  S
O736       Mg743   2.337       .  S
O738        C758   1.272       .  A
O738       Mg754   2.310       .  S
O740        C751   1.235       .  S
O740       Mg754   2.148   1_556  S
O742       Mg754   2.305       .  S
Mg743       O759   2.309   1_556  S
O744       Mg760   2.259       .  S
H745        C750   1.081       .  S
O746        C749   1.238       .  S
O746       Mg754   2.141       .  S
H747        C749   1.081       .  S
H748        C751   1.081       .  S
O753       Mg760   2.285   1_554  S
C756        O761   1.267       .  A
C756        C937   1.472       .  S
O757        C758   1.264       .  A
C758        C933   1.467       .  S
C763        C769   1.542       .  S
C763        C767   1.532       .  S
C765        C772   1.531   1_455  S
C765        H766   1.112       .  S
C767        C981   1.464       .  S
C768        C917   1.481       .  S
C768        C771   1.373       .  D
C769        C913   1.485       .  S
C769        C772   1.382       .  D
C770        C938   1.477       .  S
C771        C905   1.475       .  S
C772        C909   1.485       .  S
O773        C808   1.237       .  S
O773       Mg775   2.129       .  S
O773       Mg781   2.157       .  S
C774        O787   1.238       .  S
C774        O811   1.272       .  A
C774        H813   1.081       .  S
Mg775       O804   2.153       .  S
Mg775       O819   2.311       .  S
Mg775       O815   2.232       .  S
Mg775       O786   2.307       .  S
O776       C1125   1.237       .  S
O776       Mg818   2.153       .  S
O776      Mg1129   2.156       .  S
O777        C808   1.269       .  A
O777       Mg801   2.290       .  S
C778        O780   1.271       .  A
C778        O792   1.278       .  A
C778        C918   1.473       .  S
O779        C807   1.273       .  A
O779      Mg1109   2.310       .  S
O780       Mg812   2.258       .  S
Mg781      O1115   2.112   1_545  S
Mg781      O1107   2.306   1_545  S
Mg781       O795   2.254       .  S
Mg781       O783   2.301       .  S
C782        O820   1.271       .  A
C782        O788   1.279       .  A
C782        C898   1.480       .  S
O783        C790   1.276       .  A
H784        C797   1.081       .  S
C785        O799   1.236       .  S
C785        O800   1.270       .  A
C785        H810   1.079       .  S
O786        C809   1.271       .  A
O787      Mg1109   2.147       .  S
O787      Mg1129   2.159       .  S
O788       Mg818   2.325       .  S
C789        O802   1.274       .  A
C789        O794   1.277       .  A
C789        C914   1.482       .  S
C790        O817   1.273       .  A
C790        C950   1.475       .  S
Mg791      O1126   2.124       .  S
Mg791       O799   2.158       .  S
Mg791       O792   2.318       .  S
Mg791      O1121   2.300       .  S
Mg791       O820   2.262       .  S
O793        C797   1.270       .  A
O793      Mg1119   2.294   1_545  S
O794      Mg1129   2.324       .  S
O795        C814   1.270       .  A
O796        C816   1.271       .  A
O796      Mg1140   2.296   1_545  S
C797       O1104   1.236       .  S
O798        C809   1.236       .  S
O798      Mg1119   2.145   1_545  S
O798      Mg1140   2.149   1_545  S
O799       Mg818   2.139       .  S
O800       Mg812   2.293       .  S
Mg801      O1104   2.147       .  S
Mg801      O1115   2.163   1_545  S
Mg801      O1122   2.304   1_545  S
Mg801       O817   2.277       .  S
O802       Mg818   2.267       .  S
H803        C808   1.081       .  S
O804       C1135   1.237   1_545  S
O804      Mg1140   2.164   1_545  S
H805        C807   1.081       .  S
H806        C809   1.081       .  S
C807       O1132   1.238       .  S
O811       Mg818   2.302       .  S
Mg812      O1126   2.162       .  S
Mg812      O1132   2.139       .  S
Mg812      O1124   2.322       .  S
C814        O819   1.276       .  A
C814        C901   1.475       .  S
O815        C816   1.271       .  A
C816        C953   1.471       .  S
C821        C827   1.525       .  S
C821        C826   1.532       .  S
C821        C825   1.534       .  S
C821        H822   1.110       .  S
C823        C829   1.530       .  S
C823        C828   1.537       .  S
C823        C830   1.544       .  S
C823        H824   1.110       .  S
C825        C893   1.481       .  S
C825        C828   1.366       .  D
C826        C934   1.472       .  S
C826        C829   1.377       .  D
C827        C930   1.481       .  S
C827        C830   1.375       .  D
C828        C897   1.484       .  S
C829        C973   1.483       .  S
C830        C978   1.478       .  S
O831        C866   1.236       .  S
O831       Mg833   2.124       .  S
O831       Mg839   2.134       .  S
C832        O845   1.235       .  S
C832        O869   1.269       .  A
C832        H871   1.081       .  S
Mg833       O862   2.152       .  S
Mg833       O877   2.323       .  S
Mg833       O873   2.245       .  S
Mg833       O844   2.297       .  S
O834        C855   1.238       .  S
O834       Mg876   2.155       .  S
O834       Mg859   2.146       .  S
O835        C866   1.268       .  A
O835       Mg859   2.287       .  S
C836        O838   1.271       .  A
C836        O850   1.277       .  A
C836        C946   1.478       .  S
O837        C865   1.272       .  A
O837       Mg839   2.299       .  S
O838       Mg870   2.274       .  S
Mg839       O845   2.134       .  S
Mg839       O853   2.263       .  S
Mg839       O841   2.298       .  S
C840        O878   1.269       .  A
C840        O846   1.277       .  A
C840        C890   1.473       .  S
O841        C848   1.276       .  A
H842        C855   1.081       .  S
C843        O857   1.239       .  S
C843        O858   1.275       .  A
C843        H868   1.081       .  S
O844        C867   1.271       .  A
O845       Mg859   2.153       .  S
O846       Mg876   2.306       .  S
C847        O860   1.278       .  A
C847        O852   1.270       .  A
C847        C942   1.482       .  S
C848        O875   1.270       .  A
C848        C906   1.469       .  S
Mg849       O856   2.128       .  S
Mg849       O857   2.152       .  S
Mg849       O850   2.325       .  S
Mg849       O851   2.305       .  S
Mg849       O878   2.245       .  S
O851        C855   1.272       .  A
O852       Mg859   2.283       .  S
O853        C872   1.271       .  A
O854        C874   1.275       .  A
O854       Mg870   2.315       .  S
O856        C867   1.237       .  S
O856       Mg870   2.136       .  S
O857       Mg876   2.165       .  S
O858       Mg870   2.318       .  S
Mg859       O875   2.260       .  S
O860       Mg876   2.302       .  S
H861        C866   1.078       .  S
O862        C865   1.238       .  S
O862       Mg870   2.138       .  S
H863        C865   1.081       .  S
H864        C867   1.081       .  S
O869       Mg876   2.293       .  S
C872        O877   1.277       .  A
C872        C894   1.477       .  S
O873        C874   1.270       .  A
C874        C910   1.463       .  S
C879        C885   1.546       .  S
C879        C884   1.544       .  S
C879        C883   1.540       .  S
C879        H880   1.109       .  S
C881        C887   1.535       .  S
C881        C886   1.530       .  S
C881        C888   1.535       .  S
C881        H882   1.111       .  S
C883        C889   1.472       .  S
C883        C886   1.369       .  D
C884        C926   1.492       .  S
C884        C887   1.372       .  D
C885        C922   1.497       .  S
C885        C888   1.378       .  D
C886        C902   1.480       .  S
C887        C962   1.482       .  S
C888        C966   1.481       .  S
C889        C890   1.337       .  D
C889        H891   1.086       .  S
C890        H892   1.088       .  S
C893        C894   1.342       .  D
C893        H895   1.086       .  S
C894        H896   1.088       .  S
C897        C898   1.339       .  D
C897        H899   1.087       .  S
C898        H900   1.087       .  S
C901        C902   1.340       .  D
C901        H903   1.087       .  S
C902        H904   1.086       .  S
C905        C906   1.337       .  D
C905        H907   1.087       .  S
C906        H908   1.087       .  S
C909        C910   1.337       .  D
C909        H911   1.087       .  S
C910        H912   1.085       .  S
C913        C914   1.345       .  D
C913        H915   1.086       .  S
C914        H916   1.086       .  S
C917        C918   1.339       .  D
C917        H919   1.087       .  S
C918        H920   1.087       .  S
C921        C922   1.343       .  D
C921        H923   1.084       .  S
C922        H924   1.085       .  S
C925        C926   1.338       .  D
C925        H927   1.087       .  S
C926        H928   1.085       .  S
C929        C930   1.334       .  D
C929        H931   1.088       .  S
C930        H932   1.086       .  S
C933        C934   1.343       .  D
C933        H935   1.085       .  S
C934        H936   1.081       .  S
C941        C942   1.337       .  D
C941        H943   1.084       .  S
C942        H944   1.087       .  S
C945        C946   1.342       .  D
C945        H947   1.087       .  S
C946        H948   1.086       .  S
C949        C950   1.343       .  D
C949        H951   1.087       .  S
C950        H952   1.087       .  S
C953        C954   1.337       .  D
C953        H955   1.087       .  S
C954        H956   1.085       .  S
C961        C962   1.346       .  D
C961        H963   1.087       .  S
C962        H964   1.086       .  S
C965        C966   1.333       .  D
C965        H967   1.087       .  S
C966        H968   1.086       .  S
C969        C970   1.341       .  D
C970        H972   1.086       .  S
C973        C974   1.337       .  D
C973        H975   1.086       .  S
C974        H976   1.088       .  S
C977        C978   1.334       .  D
C977        H979   1.086       .  S
C978        H980   1.087       .  S
C981        C982   1.341   1_655  D
C981        H983   1.086       .  S
O985       C1020   1.236       .  S
O985       Mg993   2.146       .  S
C986        O999   1.234       .  S
C986       O1023   1.267       .  A
C986       H1025   1.081       .  S
Mg987      O1016   2.145       .  S
Mg987      O1031   2.308       .  S
Mg987      O1027   2.276       .  S
Mg987       O998   2.287       .  S
O988      Mg1030   2.153       .  S
O989       C1020   1.270   1_554  A
O989      Mg1013   2.300       .  S
C990        O992   1.270       .  A
C990       O1004   1.273       .  A
C990       C1305   1.466       .  S
O992      Mg1024   2.259   1_554  S
Mg993      O1007   2.247       .  S
Mg993       O995   2.315       .  S
C994       O1032   1.267       .  A
O995       C1002   1.278       .  A
H996       C1009   1.081       .  S
C997       O1011   1.237       .  S
C997       O1012   1.270   1_554  A
C997       H1022   1.081       .  S
O998       C1021   1.268   1_556  A
O1000     Mg1030   2.253       .  S
C1001      O1014   1.264       .  A
C1001      O1006   1.281       .  A
C1001      C1302   1.467       .  S
C1002      O1029   1.275       .  A
C1002      C1289   1.476       .  S
Mg1003     O1011   2.150       .  S
Mg1003     O1004   2.286       .  S
Mg1003     O1032   2.247       .  S
O1007      C1026   1.268       .  A
O1008      C1028   1.274       .  A
O1010      C1021   1.235       .  S
O1012     Mg1024   2.295       .  S
Mg1013     O1029   2.282   1_554  S
O1014     Mg1030   2.199       .  S
H1015      C1020   1.080       .  S
H1017      C1019   1.081       .  S
H1018      C1021   1.081       .  S
O1023     Mg1030   2.287   1_556  S
C1026      C1298   1.472       .  S
O1027      C1028   1.276       .  A
C1028      C1293   1.482       .  S
C1033      C1039   1.544   1_455  S
C1033      C1037   1.536   1_455  S
C1035      C1042   1.543       .  S
C1035      H1036   1.110       .  S
C1037      C1297   1.483       .  S
C1038      C1282   1.494       .  S
C1038      C1041   1.377       .  D
C1039      C1277   1.493       .  S
C1039      C1042   1.379       .  D
C1040      C1285   1.481       .  S
C1041      C1269   1.493       .  S
C1042      C1273   1.487       .  S
O1043      C1078   1.236       .  S
O1043     Mg1051   2.162       .  S
C1044      O1057   1.237       .  S
C1044      O1081   1.270       .  A
C1044      H1083   1.081       .  S
Mg1045     O1074   2.155       .  S
Mg1045     O1089   2.324       .  S
Mg1045     O1085   2.281       .  S
Mg1045     O1056   2.293   1_554  S
O1046      C1067   1.237       .  S
O1046     Mg1088   2.145       .  S
O1046     Mg1071   2.137       .  S
O1047      C1078   1.269   1_556  A
O1047     Mg1071   2.296       .  S
C1048      O1050   1.274   1_556  A
C1048      O1062   1.280       .  A
C1048      C1253   1.474       .  S
O1049     Mg1051   2.294       .  S
O1050     Mg1082   2.268       .  S
Mg1051     O1057   2.136       .  S
Mg1051     O1065   2.258       .  S
Mg1051     O1053   2.320       .  S
C1052      O1090   1.278   1_455  A
C1052      C1286   1.475       .  S
O1053      C1060   1.279       .  A
H1054      C1067   1.081       .  S
C1055      O1069   1.236       .  S
C1055      O1070   1.269   1_556  A
C1055      H1080   1.081       .  S
O1056      C1079   1.270       .  A
O1057     Mg1071   2.157   1_554  S
O1058     Mg1088   2.291       .  S
C1059      O1072   1.273       .  A
C1059      O1064   1.273       .  A
C1059      C1249   1.480       .  S
C1060      O1087   1.270       .  A
C1060      C1257   1.476       .  S
Mg1061     O1068   2.145       .  S
Mg1061     O1069   2.153       .  S
Mg1061     O1062   2.324       .  S
Mg1061     O1063   2.303       .  S
Mg1061     O1090   2.316       .  S
O1064     Mg1071   2.307       .  S
O1066      C1086   1.277       .  A
O1066     Mg1082   2.323       .  S
O1068      C1079   1.237       .  S
O1068     Mg1082   2.169   1_556  S
O1070     Mg1082   2.288       .  S
Mg1071     O1087   2.254   1_556  S
O1072     Mg1088   2.264       .  S
H1073      C1078   1.081       .  S
O1074      C1077   1.237       .  S
O1074     Mg1082   2.146       .  S
H1075      C1077   1.081       .  S
H1076      C1079   1.081       .  S
O1081     Mg1088   2.294   1_554  S
C1084      O1089   1.280   1_455  A
C1084      C1265   1.475       .  S
O1085      C1086   1.277       .  A
C1086      C1261   1.483       .  S
C1091      C1097   1.545       .  S
C1091      C1095   1.531       .  S
C1093      C1100   1.534       .  S
C1093      H1094   1.111       .  S
C1095      C1309   1.473       .  S
C1096      C1245   1.484       .  S
C1096      C1099   1.369       .  D
C1097      C1241   1.489       .  S
C1097      C1100   1.379       .  D
C1098      C1266   1.483       .  S
C1099      C1233   1.478       .  S
C1100      C1237   1.487       .  S
O1101      C1136   1.236       .  S
O1101     Mg1103   2.143       .  S
O1101     Mg1109   2.142       .  S
C1102      O1115   1.235       .  S
C1102      O1139   1.267       .  A
C1102      H1141   1.081       .  S
Mg1103     O1132   2.137       .  S
Mg1103     O1147   2.291       .  S
Mg1103     O1143   2.255       .  S
Mg1103     O1114   2.288       .  S
O1104     Mg1146   2.160   1_545  S
O1105      C1136   1.270       .  A
O1105     Mg1129   2.297       .  S
C1106      O1108   1.272       .  A
C1106      O1120   1.278       .  A
C1106      C1246   1.478       .  S
O1107      C1135   1.271       .  A
O1108     Mg1140   2.269       .  S
Mg1109     O1123   2.295       .  S
Mg1109     O1111   2.350       .  S
C1110      O1148   1.273       .  A
C1110      O1116   1.276       .  A
C1110      C1226   1.478       .  S
O1111      C1118   1.282       .  A
H1112      C1125   1.081       .  S
C1113      O1127   1.235       .  S
C1113      O1128   1.269       .  A
C1113      H1138   1.081       .  S
O1114      C1137   1.270       .  A
O1116     Mg1146   2.296       .  S
C1117      O1130   1.274       .  A
C1117      O1122   1.274       .  A
C1117      C1242   1.473       .  S
C1118      O1145   1.275       .  A
C1118      C1278   1.488       .  S
Mg1119     O1127   2.151       .  S
Mg1119     O1120   2.325       .  S
Mg1119     O1148   2.276       .  S
O1121      C1125   1.272       .  A
O1123      C1142   1.277       .  A
O1124      C1144   1.275       .  A
O1126      C1137   1.238       .  S
O1127     Mg1146   2.139       .  S
O1128     Mg1140   2.298       .  S
Mg1129     O1145   2.282       .  S
O1130     Mg1146   2.252       .  S
H1131      C1136   1.081       .  S
H1133      C1135   1.081       .  S
H1134      C1137   1.081       .  S
O1139     Mg1146   2.278       .  S
C1142      O1147   1.272       .  A
C1142      C1229   1.472       .  S
O1143      C1144   1.272       .  A
C1144      C1281   1.485       .  S
C1149      C1155   1.541       .  S
C1149      C1154   1.551       .  S
C1149      C1153   1.535       .  S
C1149      H1150   1.108       .  S
C1151      C1157   1.527       .  S
C1151      C1156   1.536       .  S
C1151      C1158   1.526       .  S
C1151      H1152   1.112       .  S
C1153      C1221   1.479       .  S
C1153      C1156   1.370       .  D
C1154      C1262   1.499       .  S
C1154      C1157   1.383       .  D
C1155      C1258   1.474       .  S
C1155      C1158   1.365       .  D
C1156      C1225   1.479       .  S
C1157      C1301   1.480       .  S
C1158      C1306   1.473       .  S
O1159      C1194   1.238       .  S
O1159     Mg1161   2.155       .  S
O1159     Mg1167   2.160       .  S
C1160      O1173   1.235       .  S
C1160      O1197   1.268       .  A
C1160      H1199   1.081       .  S
Mg1161     O1190   2.154       .  S
Mg1161     O1205   2.306       .  S
Mg1161     O1201   2.271       .  S
Mg1161     O1172   2.288       .  S
O1162      C1183   1.236       .  S
O1162     Mg1204   2.154       .  S
O1162     Mg1187   2.128       .  S
O1163      C1194   1.272       .  A
O1163     Mg1187   2.303       .  S
C1164      O1166   1.274       .  A
C1164      O1178   1.270       .  A
C1164      C1274   1.465       .  S
O1165      C1193   1.271       .  A
O1165     Mg1167   2.299       .  S
O1166     Mg1198   2.288       .  S
Mg1167     O1173   2.136       .  S
Mg1167     O1181   2.267       .  S
Mg1167     O1169   2.317       .  S
C1168      O1206   1.268       .  A
C1168      O1174   1.276       .  A
C1168      C1218   1.466       .  S
O1169      C1176   1.278       .  A
H1170      C1183   1.081       .  S
C1171      O1185   1.237       .  S
C1171      O1186   1.270       .  A
C1171      H1196   1.081       .  S
O1172      C1195   1.268       .  A
O1173     Mg1187   2.154       .  S
O1174     Mg1204   2.300       .  S
C1175      O1188   1.277       .  A
C1175      O1180   1.278       .  A
C1175      C1270   1.488       .  S
C1176      O1203   1.271       .  A
C1176      C1234   1.472       .  S
Mg1177     O1184   2.124       .  S
Mg1177     O1185   2.170       .  S
Mg1177     O1178   2.269       .  S
Mg1177     O1179   2.284       .  S
Mg1177     O1206   2.243       .  S
O1179      C1183   1.269       .  A
O1180     Mg1187   2.327       .  S
O1181      C1200   1.272       .  A
O1182      C1202   1.277       .  A
O1182     Mg1198   2.326       .  S
O1184      C1195   1.235       .  S
O1184     Mg1198   2.166       .  S
O1185     Mg1204   2.143       .  S
O1186     Mg1198   2.292       .  S
Mg1187     O1203   2.254       .  S
O1188     Mg1204   2.286       .  S
H1189      C1194   1.081       .  S
O1190      C1193   1.237       .  S
O1190     Mg1198   2.146       .  S
H1191      C1193   1.081       .  S
H1192      C1195   1.081       .  S
O1197     Mg1204   2.292       .  S
C1200      O1205   1.277       .  A
C1200      C1222   1.477       .  S
O1201      C1202   1.277       .  A
C1202      C1238   1.485       .  S
C1207      C1213   1.538       .  S
C1207      C1212   1.533       .  S
C1207      C1211   1.534       .  S
C1207      H1208   1.110       .  S
C1209      C1215   1.543       .  S
C1209      C1214   1.538       .  S
C1209      C1216   1.535       .  S
C1209      H1210   1.111       .  S
C1211      C1217   1.479       .  S
C1211      C1214   1.370       .  D
C1212      C1254   1.482       .  S
C1212      C1215   1.377       .  D
C1213      C1250   1.488       .  S
C1213      C1216   1.371       .  D
C1214      C1230   1.480       .  S
C1215      C1290   1.483       .  S
C1216      C1294   1.480       .  S
C1217      C1218   1.339       .  D
C1217      H1219   1.088       .  S
C1218      H1220   1.086       .  S
C1221      C1222   1.342       .  D
C1221      H1223   1.086       .  S
C1222      H1224   1.087       .  S
C1225      C1226   1.343       .  D
C1225      H1227   1.086       .  S
C1226      H1228   1.087       .  S
C1229      C1230   1.335       .  D
C1229      H1231   1.087       .  S
C1230      H1232   1.087       .  S
C1233      C1234   1.339       .  D
C1233      H1235   1.086       .  S
C1234      H1236   1.087       .  S
C1237      C1238   1.342       .  D
C1237      H1239   1.086       .  S
C1238      H1240   1.087       .  S
C1241      C1242   1.341       .  D
C1241      H1243   1.085       .  S
C1242      H1244   1.083       .  S
C1245      C1246   1.340       .  D
C1245      H1247   1.087       .  S
C1246      H1248   1.087       .  S
C1249      C1250   1.342       .  D
C1249      H1251   1.086       .  S
C1250      H1252   1.085       .  S
C1253      C1254   1.339       .  D
C1253      H1255   1.087       .  S
C1254      H1256   1.087       .  S
C1257      C1258   1.338       .  D
C1257      H1259   1.087       .  S
C1258      H1260   1.086       .  S
C1261      C1262   1.345       .  D
C1261      H1263   1.084       .  S
C1262      H1264   1.083       .  S
C1269      C1270   1.345       .  D
C1269      H1271   1.085       .  S
C1270      H1272   1.087       .  S
C1273      C1274   1.342       .  D
C1273      H1275   1.085       .  S
C1274      H1276   1.086       .  S
C1277      C1278   1.344       .  D
C1277      H1279   1.086       .  S
C1278      H1280   1.087       .  S
C1281      C1282   1.346       .  D
C1281      H1283   1.084       .  S
C1282      H1284   1.082       .  S
C1289      C1290   1.343       .  D
C1289      H1291   1.087       .  S
C1290      H1292   1.087       .  S
C1293      C1294   1.338       .  D
C1293      H1295   1.087       .  S
C1294      H1296   1.086       .  S
C1297      C1298   1.336       .  D
C1298      H1300   1.086       .  S
C1301      C1302   1.333       .  D
C1301      H1303   1.086       .  S
C1302      H1304   1.089       .  S
C1305      C1306   1.340       .  D
C1305      H1307   1.087       .  S
C1306      H1308   1.087       .  S
C1309      C1310   1.343   1_655  D
C1309      H1311   1.086       .  S
