geometry optimzed in LAMMPS
_audit_creation_date              2020-11-30 
_audit_creation_method            'lammps2cif' 
_symmetry_space_group_name_H-M    'P1' 
_symmetry_Int_Tables_number       1 
_symmetry_cell_setting            triclinic 
loop_ 
_symmetry_equiv_pos_as_xyz 
  x,y,z 
_cell_length_a                    33.01533737 
_cell_length_b                    33.38415605337701 
_cell_length_c                    25.24490501586101 
_cell_angle_alpha                 90.65546270620914 
_cell_angle_beta                  90.13629655431693 
_cell_angle_gamma                 89.62961730938962 
loop_ 
_atom_site_label 
_atom_site_type_symbol 
_atom_site_fract_x 
_atom_site_fract_y 
_atom_site_fract_z 
_atom_site_charge 
O1          O  0.21275781  0.04906075  0.20681438    -0.73400
O2          O  0.21146403  0.46309544  0.31296788    -0.74400
O3          O  0.21550261  0.46358668  0.19958979    -0.63000
O4          O  0.20817488  0.04827804  0.31395566    -0.71400
O5          O  0.14168412  0.04731302  0.31617836    -0.71000
O6          O  0.14921951  0.46455636  0.19027966    -0.62200
O7          O  0.14485519  0.45946617  0.30883484    -0.74700
O8          O  0.14614237  0.05290650  0.20143577    -0.73500
Cu9        Cu  0.21354647  0.50586654  0.25844339     1.04600
Cu10       Cu  0.14260439  0.00581836  0.25368973     1.04300
C11         C  0.18122853  0.06547211  0.18813005     0.92800
C12         C  0.17875016  0.44730641  0.32833817     0.91900
C13         C  0.18411369  0.45103890  0.17527771     0.84100
C14         C  0.17544764  0.06156600  0.33302766     0.90400
C15         C  0.22548675  0.17785062  0.50896585    -0.02900
C16         C  0.21706751  0.32130105  0.99809160    -0.02900
O17         O  0.27563395  0.02008656  0.29853626    -0.73400
O18         O  0.29489008  0.45135077  0.17270535    -0.74400
O19         O  0.27963188  0.43543154  0.27721770    -0.63000
O20         O  0.28728709  0.03287230  0.18961058    -0.71400
O21         O  0.35388640  0.03440233  0.19549996    -0.71000
O22         O  0.34453820  0.43734056  0.29736006    -0.62200
O23         O  0.36129097  0.44948909  0.18633528    -0.74700
O24         O  0.34114660  0.02574430  0.30924547    -0.73500
Cu25       Cu  0.28285765  0.48484789  0.23445251     1.04600
Cu26       Cu  0.35312721  0.48696461  0.24801357     1.04300
C27         C  0.30519686  0.03705724  0.32136182     0.92800
C28         C  0.33033958  0.44028125  0.15879724     0.91900
C29         C  0.30961269  0.42041620  0.30135187     0.84100
C30         C  0.32055303  0.04809391  0.17590346     0.90400
C31         C  0.28635735  0.17179733  0.00380480    -0.02900
C32         C  0.27770100  0.32000216  0.99582387    -0.02900
O33         O  0.46822183  0.14736310  0.30947678    -0.73400
O34         O  0.05580023  0.14694463  0.19198187    -0.74400
O35         O  0.05877956  0.14726904  0.30252573    -0.63000
O36         O  0.46770286  0.14754324  0.19179259    -0.71400
O37         O  0.47210397  0.21342685  0.19228856    -0.71000
O38         O  0.05631638  0.21320910  0.30604070    -0.62200
O39         O  0.05672662  0.21263573  0.20038296    -0.74700
O40         O  0.46683297  0.21338889  0.30701437    -0.73500
Cu41       Cu  0.01220550  0.14467513  0.24927732     1.04600
Cu42       Cu  0.01249288  0.21502773  0.25183432     1.04300
C43         C  0.45317424  0.18086896  0.32626261     0.92800
C44         C  0.07143250  0.18083232  0.18076279     0.91900
C45         C  0.07380533  0.18071262  0.31826252     0.84100
C46         C  0.45775937  0.18147623  0.17204143     0.90400
C47         C  0.18287045  0.22040799  0.00076883    -0.02900
C48         C  0.32564618  0.21572089  0.00098435    -0.02900
O49         O  0.44617162  0.34731888  0.19426749    -0.73400
O50         O  0.03435616  0.35273711  0.31138419    -0.74400
O51         O  0.03534628  0.34457590  0.19456119    -0.63000
O52         O  0.44874172  0.36116616  0.30699743    -0.71400
O53         O  0.45552436  0.29598845  0.31977447    -0.71000
O54         O  0.02583346  0.27978327  0.19208431    -0.62200
O55         O  0.03569200  0.28691949  0.30386360    -0.74700
O56         O  0.44067927  0.28289469  0.21096012    -0.73500
Cu57       Cu  0.99162550  0.35437125  0.25098013     1.04600
Cu58       Cu  0.98941256  0.28465586  0.25676807     1.04300
C59         C  0.42878691  0.31327097  0.18593019     0.92800
C60         C  0.04626202  0.31840313  0.32821568     0.91900
C61         C  0.04433110  0.31021130  0.17461642     0.84100
C62         C  0.43901711  0.32966281  0.33154624     0.90400
C63         C  0.17436216  0.27972334  0.99630433    -0.02900
C64         C  0.32112546  0.27696111  0.99747827    -0.02900
C65         C  0.40083496  0.35160514  0.41394800    -0.09600
C66         C  0.40474662  0.32839108  0.36848601     0.06600
C67         C  0.38014542  0.29574649  0.36361335    -0.03400
C68         C  0.36762839  0.27829132  0.41065871    -0.07800
C69         C  0.35358201  0.29934419  0.45454895     0.05700
C70         C  0.37386001  0.33987145  0.45508063    -0.02900
Br71       Br  0.38348641  0.37828107  0.51207867    -0.02500
H72         H  0.42014250  0.37760544  0.41820979     0.09600
H73         H  0.39292119  0.26005057  0.42340632     0.07600
Br74       Br  0.37755176  0.26928602  0.29505212    -0.03000
C75         C  0.36197784  0.28708028  0.14605555    -0.09600
C76         C  0.40000729  0.30620611  0.14133347     0.06600
C77         C  0.41362205  0.31378110  0.09100579    -0.03400
C78         C  0.39130940  0.30084116  0.04764783    -0.07800
C79         C  0.34980070  0.28710813  0.04863291     0.05700
C80         C  0.33751160  0.27727483  0.10004552    -0.02900
Br81       Br  0.28317516  0.25859603  0.10154816    -0.02500
H82         H  0.35007259  0.28282016  0.18530535     0.09600
H83         H  0.41014089  0.29960122  0.01300254     0.07600
Br84       Br  0.46391342  0.34104125  0.07813172    -0.03000
C85         C  0.10391742  0.26609113  0.43785197    -0.09600
C86         C  0.14152778  0.28711832  0.44331605     0.06600
C87         C  0.14190286  0.31416111  0.39845016    -0.03400
C88         C  0.10707409  0.33499088  0.38155942    -0.07800
C89         C  0.07244665  0.31254864  0.37542587     0.05700
C90         C  0.07107275  0.27667653  0.40407737    -0.02900
Br91       Br  0.02153479  0.24668356  0.40819240    -0.02500
H92         H  0.09829874  0.24198200  0.46254429     0.09600
H93         H  0.11024426  0.36138163  0.35707167     0.07600
Br94       Br  0.15459175  0.29875180  0.32559664    -0.03000
C95         C  0.07637128  0.27292781  0.09594313    -0.09600
C96         C  0.07589258  0.30561131  0.13119432     0.06600
C97         C  0.10362732  0.33532411  0.11843826    -0.03400
C98         C  0.13194888  0.32886049  0.07642158    -0.07800
C99         C  0.13605961  0.29420744  0.04153711     0.05700
C100        C  0.09579117  0.27665335  0.04597497    -0.02900
Br101      Br  0.05108643  0.30686431  0.01424325    -0.02500
H102        H  0.05690997  0.24805638  0.10288436     0.09600
H103        H  0.14325903  0.35656950  0.06788996     0.07600
Br104      Br  0.10047977  0.38750750  0.15103139    -0.03000
C105        C  0.39075365  0.16799107  0.13084870    -0.09600
C106        C  0.42829214  0.18523259  0.12717894     0.06600
C107        C  0.43287640  0.21263336  0.08632350    -0.03400
C108        C  0.40106672  0.22098532  0.05088179    -0.07800
C109        C  0.35994680  0.20706649  0.05387172     0.05700
C110        C  0.35760171  0.18741383  0.10635999    -0.02900
Br111      Br  0.33501220  0.20487374  0.17487678    -0.02500
H112        H  0.38614860  0.14682692  0.16277342     0.09600
H113        H  0.41063109  0.23675552  0.01646731     0.07600
Br114      Br  0.48281118  0.23662452  0.07195609    -0.03000
C115        C  0.38010475  0.19419191  0.35377151    -0.09600
C116        C  0.41951550  0.18316735  0.36758664     0.06600
C117        C  0.42469824  0.17361482  0.42057706    -0.03400
C118        C  0.39278871  0.17929925  0.45720294    -0.07800
C119        C  0.35532867  0.20193415  0.44882804     0.05700
C120        C  0.34926461  0.20475526  0.39147591    -0.02900
Br121      Br  0.30082676  0.21704789  0.35676700    -0.02500
H122        H  0.37271168  0.19320543  0.31201743     0.09600
H123        H  0.39813627  0.16336523  0.49305429     0.07600
Br124      Br  0.47329873  0.14852298  0.44486700    -0.03000
C125        C  0.14232818  0.20853498  0.34931907    -0.09600
C126        C  0.10896838  0.18252398  0.35492557     0.06600
C127        C  0.10726003  0.16109582  0.40056011    -0.03400
C128        C  0.13131823  0.17266028  0.44269438    -0.07800
C129        C  0.15955563  0.20476975  0.44516078     0.05700
C130        C  0.16837049  0.21795477  0.39350662    -0.02900
Br131      Br  0.21642075  0.24719530  0.38607477    -0.02500
H132        H  0.14874836  0.21989997  0.31060440     0.09600
H133        H  0.12788491  0.15266403  0.47267379     0.07600
Br134      Br  0.07241473  0.11532977  0.40897843    -0.03000
C135        C  0.15523749  0.22648597  0.09806180    -0.09600
C136        C  0.14977997  0.20900216  0.04830605     0.06600
C137        C  0.11457600  0.18252522  0.05001986    -0.03400
C138        C  0.10242843  0.16347690  0.09600895    -0.07800
C139        C  0.10465363  0.18519394  0.14227249     0.05700
C140        C  0.13163873  0.21769696  0.14385007    -0.02900
Br141      Br  0.13641764  0.24967255  0.20708181    -0.02500
H142        H  0.17974169  0.24578113  0.09903484     0.09600
H143        H  0.08003920  0.13980644  0.09348814     0.07600
Br144      Br  0.06286697  0.18879739  0.01424590    -0.03000
C145        C  0.34255179  0.37692683  0.11387773    -0.09600
C146        C  0.33320676  0.41654331  0.10999565     0.06600
C147        C  0.30623063  0.42649729  0.07124160    -0.03400
C148        C  0.28553384  0.39729239  0.04177095    -0.07800
C149        C  0.29176908  0.35472525  0.04446989     0.05700
C150        C  0.31317563  0.34999445  0.09419493    -0.02900
Br151      Br  0.28834831  0.34595513  0.16205328    -0.02500
H152        H  0.36133816  0.36979045  0.14782611     0.09600
H153        H  0.26582871  0.41164218  0.01601286     0.07600
Br154      Br  0.30003248  0.48088416  0.05811761    -0.03000
C155        C  0.28250652  0.40899668  0.38799818    -0.09600
C156        C  0.30015886  0.39134870  0.34424223     0.06600
C157        C  0.30209059  0.34899992  0.34497093    -0.03400
C158        C  0.29411690  0.32757930  0.39269206    -0.07800
C159        C  0.28774634  0.34663298  0.44318699     0.05700
C160        C  0.28594598  0.39007693  0.43638277    -0.02900
Br161      Br  0.32957826  0.42981222  0.44366933    -0.02500
H162        H  0.26926533  0.43916694  0.38495028     0.09600
H163        H  0.29059300  0.29562962  0.39011756     0.07600
Br164      Br  0.29925220  0.31930406  0.28128601    -0.03000
C165        C  0.26882740  0.06947170  0.39924506    -0.09600
C166        C  0.29775423  0.07120642  0.35978907     0.06600
C167        C  0.32271403  0.10406319  0.36197069    -0.03400
C168        C  0.31993508  0.13165707  0.40495397    -0.07800
C169        C  0.29215953  0.13396460  0.44885186     0.05700
C170        C  0.27256828  0.09403796  0.44584325    -0.02900
Br171      Br  0.28361919  0.04962557  0.48896565    -0.02500
H172        H  0.24935995  0.04324908  0.39869682     0.09600
H173        H  0.35009339  0.13755332  0.41061311     0.07600
Br174      Br  0.36628437  0.10815030  0.31129205    -0.03000
C175        C  0.33228471  0.07471995  0.08516988    -0.09600
C176        C  0.31832509  0.08088172  0.13601307     0.06600
C177        C  0.29835488  0.11692114  0.14628207    -0.03400
C178        C  0.29151771  0.14522384  0.10520053    -0.07800
C179        C  0.30433682  0.14107342  0.05209587     0.05700
C180        C  0.33250083  0.10624725  0.04839926    -0.02900
Br181      Br  0.39120991  0.10582341  0.04019746    -0.02500
H182        H  0.34948514  0.04742263  0.07774417     0.09600
H183        H  0.27851014  0.17324806  0.11397071     0.07600
Br184      Br  0.28228329  0.12757161  0.21734504    -0.03000
C185        C  0.21250376  0.35087047  0.39734982    -0.09600
C186        C  0.19922572  0.35336918  0.45111058     0.06600
C187        C  0.16509655  0.38369330  0.45161664    -0.03400
C188        C  0.16309470  0.41622959  0.41609009    -0.07800
C189        C  0.18198257  0.41417200  0.36784081     0.05700
C190        C  0.20338861  0.37919023  0.35698752    -0.02900
Br191      Br  0.21470693  0.36784313  0.28484986    -0.02500
H192        H  0.22450225  0.32333598  0.38376709     0.09600
H193        H  0.14278583  0.44145609  0.42298643     0.07600
Br194      Br  0.11293948  0.38663175  0.48549117    -0.03000
C195        C  0.19984590  0.39774558  0.04046209    -0.09600
C196        C  0.20948713  0.35507004  0.04887665     0.06600
C197        C  0.20977050  0.34966810  0.10622339    -0.03400
C198        C  0.20311365  0.38135483  0.14404229    -0.07400
C199        C  0.18978565  0.41948372  0.13161028     0.05700
C200        C  0.18484268  0.42597183  0.07788997    -0.02900
Br201      Br  0.15235741  0.46939902  0.05206037    -0.02500
H202        H  0.20549543  0.41308595  0.00433566     0.09600
H203        H  0.20486001  0.37525945  0.18520832     0.07600
Br204      Br  0.20603655  0.30286382  0.14596582    -0.03000
C205        C  0.17173214  0.08213370  0.42746004    -0.09600
C206        C  0.17946929  0.09246072  0.37573956     0.06600
C207        C  0.20121495  0.12764712  0.36751894    -0.03400
C208        C  0.21704296  0.15031852  0.41011389    -0.07800
C209        C  0.20808673  0.14376923  0.46458485     0.05700
C210        C  0.18174850  0.10748974  0.47059443    -0.02900
Br211      Br  0.14455969  0.09040620  0.02547849    -0.02500
H212        H  0.15549252  0.05445096  0.43387743     0.09600
H213        H  0.23736788  0.17380834  0.40058572     0.07600
Br214      Br  0.20859394  0.14694291  0.29794405    -0.03000
C215        C  0.22367344  0.11198347  0.06652660    -0.09600
C216        C  0.21511537  0.15362234  0.06716681     0.06600
C217        C  0.20324027  0.16437298  0.12182856    -0.03400
C218        C  0.18432575  0.13638619  0.15585778    -0.07800
C219        C  0.18815230  0.09557942  0.14664410     0.05700
C220        C  0.21195043  0.08423073  0.10419694    -0.02900
Br221      Br  0.22446443  0.02972048  0.09249239    -0.02500
H222        H  0.24067939  0.10075214  0.03525939     0.09600
H223        H  0.17236766  0.14604273  0.19382405     0.07600
Br224      Br  0.22447291  0.20536917  0.16917498    -0.03000
O225        O  0.21745239  0.04719058  0.70650913    -0.73400
O226        O  0.21493419  0.46133340  0.81256990    -0.74400
O227        O  0.21835726  0.46198871  0.70009284    -0.63000
O228        O  0.21319459  0.04696888  0.81391915    -0.71400
O229        O  0.14665176  0.04684927  0.81721175    -0.71000
O230        O  0.15170720  0.46388258  0.69264979    -0.62200
O231        O  0.14821524  0.45889302  0.80918758    -0.74700
O232        O  0.15061406  0.05155563  0.70267614    -0.73500
Cu233      Cu  0.21794607  0.50441340  0.75836151     1.04600
Cu234      Cu  0.14641552  0.00517408  0.75546924     1.04300
C235        C  0.18563924  0.06339138  0.68793295     0.92800
C236        C  0.18204230  0.44540762  0.82712521     0.91900
C237        C  0.18615752  0.44981185  0.67711531     0.84100
C238        C  0.18059799  0.06093527  0.83341282     0.90400
C239        C  0.22598874  0.17842615  0.01122575    -0.02900
C240        C  0.21657656  0.32173805  0.49976853    -0.02900
O241        O  0.28914974  0.03123350  0.79814743    -0.73400
O242        O  0.30007339  0.45568421  0.67614006    -0.74400
O243        O  0.28734318  0.44638699  0.78281991    -0.63000
O244        O  0.29840627  0.03838677  0.68724892    -0.71400
O245        O  0.36514436  0.03787469  0.69109853    -0.71000
O246        O  0.35300114  0.44285973  0.79810002    -0.62200
O247        O  0.36677388  0.45133292  0.68627936    -0.74700
O248        O  0.35536179  0.03198747  0.80737255    -0.73500
Cu249      Cu  0.29209240  0.49312261  0.73581828     1.04600
Cu250      Cu  0.36293827  0.49115231  0.74645483     1.04300
C251        C  0.32042328  0.04479686  0.82200640     0.92800
C252        C  0.33440594  0.44160948  0.66196436     0.91900
C253        C  0.31693538  0.42916773  0.80516833     0.84100
C254        C  0.33196340  0.05224797  0.67174333     0.90400
C255        C  0.28560409  0.17185279  0.49861735    -0.02900
C256        C  0.27694108  0.32038340  0.49851859    -0.02900
O257        O  0.46640222  0.14417280  0.80516457    -0.73400
O258        O  0.05678951  0.14561332  0.69205316    -0.74400
O259        O  0.05804957  0.14574844  0.80329902    -0.63000
O260        O  0.46858839  0.14549206  0.68810835    -0.71400
O261        O  0.47179123  0.21138109  0.69026327    -0.71000
O262        O  0.05572401  0.21161461  0.80581966    -0.62200
O263        O  0.05679521  0.21144294  0.69957004    -0.74700
O264        O  0.46565924  0.21019649  0.80535004    -0.73500
Cu265      Cu  0.01213287  0.14269572  0.74751515     1.04600
Cu266      Cu  0.01197120  0.21302236  0.75068537     1.04300
C267        C  0.45102481  0.17733446  0.82240914     0.92800
C268        C  0.07195457  0.17958622  0.68041743     0.91900
C269        C  0.07320068  0.17929984  0.81891383     0.84100
C270        C  0.45805644  0.17949810  0.66893840     0.90400
C271        C  0.18255151  0.22018208  0.49974571    -0.02900
C272        C  0.32485980  0.21670710  0.49920131    -0.02900
O273        O  0.44564370  0.34585616  0.69360297    -0.73400
O274        O  0.03392753  0.35074746  0.80957321    -0.74400
O275        O  0.03527910  0.34478831  0.69356079    -0.63000
O276        O  0.44763423  0.35599996  0.80525213    -0.71400
O277        O  0.45465415  0.29042040  0.81426796    -0.71000
O278        O  0.02695408  0.27969336  0.69003307    -0.62200
O279        O  0.03575951  0.28495223  0.80131200    -0.74700
O280        O  0.44147864  0.28085174  0.70751268    -0.73500
Cu281      Cu  0.99101348  0.35230036  0.74981387     1.04600
Cu282      Cu  0.98983929  0.28225847  0.75325702     1.04300
C283        C  0.42853707  0.31178757  0.68474710     0.92800
C284        C  0.04659009  0.31646376  0.82548968     0.91900
C285        C  0.04507941  0.31064429  0.67360076     0.84100
C286        C  0.43744852  0.32335737  0.82686507     0.90400
C287        C  0.17422316  0.27973900  0.49699934    -0.02900
C288        C  0.32084434  0.27823286  0.49798268    -0.02900
C289        C  0.39996376  0.34573884  0.90764802    -0.09600
C290        C  0.40395597  0.32077084  0.86411319     0.06600
C291        C  0.38020132  0.28704405  0.86139084    -0.03400
C292        C  0.36607775  0.27215143  0.90900301    -0.07800
C293        C  0.35340447  0.29531868  0.95225110     0.05700
C294        C  0.37388771  0.33546785  0.94983776    -0.02900
Br295      Br  0.38212700  0.37694021  0.00269725    -0.02500
H296        H  0.41849438  0.37244365  0.90935840     0.09600
H297        H  0.39256364  0.25602598  0.92201446     0.07600
Br298      Br  0.37705759  0.25691825  0.79527146    -0.03000
C299        C  0.36133706  0.28634765  0.64599045    -0.09600
C300        C  0.39944045  0.30539920  0.64103059     0.06600
C301        C  0.41379597  0.31195073  0.59099259    -0.03400
C302        C  0.39153851  0.29908064  0.54793127    -0.07800
C303        C  0.34944689  0.28721901  0.54910473     0.05700
C304        C  0.33680574  0.27711738  0.59998179    -0.02900
Br305      Br  0.28216563  0.25857954  0.60063480    -0.02500
H306        H  0.34963646  0.28149663  0.68523081     0.09600
H307        H  0.41020878  0.29787891  0.51305091     0.07600
Br308      Br  0.46486910  0.33797559  0.57809120    -0.03000
C309        C  0.10414545  0.26597025  0.93693549    -0.09600
C310        C  0.14216531  0.28645680  0.94155811     0.06600
C311        C  0.14343549  0.31220654  0.89483625    -0.03400
C312        C  0.10892183  0.33263354  0.87595846    -0.07800
C313        C  0.07385649  0.31080716  0.87164526     0.05700
C314        C  0.07168798  0.27616701  0.90243057    -0.02900
Br315      Br  0.02144588  0.24772153  0.90779392    -0.02500
H316        H  0.09808693  0.24217626  0.96221253     0.09600
H317        H  0.11226876  0.35818009  0.84996178     0.07600
Br318      Br  0.15949859  0.29770491  0.82268517    -0.03000
C319        C  0.07824424  0.27240452  0.59792338    -0.09600
C320        C  0.07692448  0.30632489  0.63105861     0.06600
C321        C  0.10264730  0.33710254  0.61541896    -0.03400
C322        C  0.13087631  0.32999494  0.57350544    -0.07800
C323        C  0.13638059  0.29374927  0.54223578     0.05700
C324        C  0.09667392  0.27549683  0.54752799    -0.02900
Br325      Br  0.05102432  0.30467603  0.51592784    -0.02500
H326        H  0.05826166  0.24789520  0.60530556     0.09600
H327        H  0.14318167  0.35705906  0.56389094     0.07600
Br328      Br  0.09573063  0.39107528  0.64146293    -0.03000
C329        C  0.39106528  0.16613811  0.62608052    -0.09600
C330        C  0.42869558  0.18339472  0.62337680     0.06600
C331        C  0.43342572  0.21098627  0.58271101    -0.03400
C332        C  0.40154405  0.21962213  0.54703550    -0.07800
C333        C  0.35966208  0.20734765  0.55161134     0.05700
C334        C  0.35789329  0.18712905  0.60366008    -0.02900
Br335      Br  0.33380395  0.20316594  0.67155942    -0.02500
H336        H  0.38639642  0.14552081  0.65850207     0.09600
H337        H  0.41113434  0.23486112  0.51202701     0.07600
Br338      Br  0.48362561  0.23516886  0.57036459    -0.03000
C339        C  0.37632348  0.18155591  0.85351323    -0.09600
C340        C  0.41789316  0.17874397  0.86458411     0.06600
C341        C  0.42719776  0.17786994  0.91779022    -0.03400
C342        C  0.39727099  0.18489700  0.95622511    -0.07800
C343        C  0.35586991  0.19980411  0.94934791     0.05700
C344        C  0.34695411  0.19487434  0.89242694    -0.02900
Br345      Br  0.29894706  0.20796417  0.85800327    -0.02500
H346        H  0.36703904  0.17679602  0.81270655     0.09600
H347        H  0.40664390  0.17077441  0.99138440     0.07600
Br348      Br  0.47792133  0.15647935  0.94090103    -0.03000
C349        C  0.14231971  0.20758664  0.85031113    -0.09600
C350        C  0.10865496  0.18163212  0.85602314     0.06600
C351        C  0.10734844  0.16034259  0.90190381    -0.03400
C352        C  0.13163121  0.17206293  0.94391665    -0.07800
C353        C  0.15971958  0.20434473  0.94630171     0.05700
C354        C  0.16868217  0.21708850  0.89444673    -0.02900
Br355      Br  0.21743766  0.24625820  0.88777237    -0.02500
H356        H  0.14870503  0.21888648  0.81168218     0.09600
H357        H  0.12848555  0.15206390  0.97383516     0.07600
Br358      Br  0.07300595  0.11431607  0.91074738    -0.03000
C359        C  0.15618155  0.22409807  0.59724693    -0.09600
C360        C  0.14943154  0.20807760  0.54705364     0.06600
C361        C  0.11290151  0.18308177  0.54860724    -0.03400
C362        C  0.10050029  0.16362386  0.59417837    -0.07800
C363        C  0.10479443  0.18369500  0.64133134     0.05700
C364        C  0.13291849  0.21504952  0.64342359    -0.02900
Br365      Br  0.13914497  0.24439389  0.70845443    -0.02500
H366        H  0.18222228  0.24138884  0.59793122     0.09600
H367        H  0.07708469  0.14094149  0.59152464     0.07600
Br368      Br  0.06169563  0.18852962  0.51122487    -0.03000
C369        C  0.33940863  0.37488001  0.62250109    -0.09600
C370        C  0.33465334  0.41492094  0.61564657     0.06600
C371        C  0.31166741  0.42655380  0.57372525    -0.03400
C372        C  0.28985142  0.39876760  0.54275320    -0.07800
C373        C  0.29179270  0.35547475  0.54707430     0.05700
C374        C  0.31019201  0.34948924  0.59888302    -0.02900
Br375      Br  0.28343948  0.34249680  0.66485032    -0.02500
H376        H  0.35583419  0.36688111  0.65829953     0.09600
H377        H  0.27175106  0.41505785  0.51652673     0.07600
Br378      Br  0.31757728  0.48059269  0.55612592    -0.03000
C379        C  0.28384993  0.41271223  0.88811637    -0.09600
C380        C  0.30648343  0.39863819  0.84616466     0.06600
C381        C  0.31202371  0.35693060  0.84465510    -0.03400
C382        C  0.29966089  0.33217572  0.88851802    -0.07800
C383        C  0.28988250  0.34827872  0.94083170     0.05700
C384        C  0.28559045  0.39204208  0.93562013    -0.02900
Br385      Br  0.32559346  0.43503574  0.94902547    -0.02500
H386        H  0.26824555  0.44174613  0.88519350     0.09600
H387        H  0.29700011  0.30032958  0.88144111     0.07600
Br388      Br  0.32542196  0.33493903  0.77813553    -0.03000
C389        C  0.27737010  0.07925029  0.89112779    -0.09600
C390        C  0.31492742  0.07508753  0.86674568     0.06600
C391        C  0.34608542  0.09472062  0.89367869    -0.03400
C392        C  0.33624222  0.12120682  0.93670213    -0.07800
C393        C  0.29686840  0.13461611  0.95512559     0.05700
C394        C  0.27424962  0.09842869  0.94147496    -0.02900
Br395      Br  0.27590081  0.05036111  0.98095476    -0.02500
H396        H  0.25610573  0.05608301  0.88197691     0.09600
H397        H  0.36118442  0.12812103  0.95771982     0.07600
Br398      Br  0.40207625  0.08133618  0.88153875    -0.03000
C399        C  0.34894256  0.08354228  0.58334832    -0.09600
C400        C  0.32935331  0.08535202  0.63162686     0.06600
C401        C  0.30193114  0.11659051  0.63870935    -0.03400
C402        C  0.29298942  0.14378456  0.59717300    -0.07800
C403        C  0.30584342  0.14055099  0.54406900     0.05700
C404        C  0.33901479  0.10969801  0.54056346    -0.02900
Br405      Br  0.37402967  0.09021650  0.48413092    -0.02500
H406        H  0.37115802  0.05969345  0.57855815     0.09600
H407        H  0.27842481  0.17108320  0.60630169     0.07600
Br408      Br  0.28111937  0.12471516  0.70868529    -0.03000
C409        C  0.21549575  0.34874186  0.89591136    -0.09600
C410        C  0.20041268  0.35151015  0.94861548     0.06600
C411        C  0.16509408  0.38003504  0.94716355    -0.03400
C412        C  0.16243159  0.41183574  0.91089566    -0.07800
C413        C  0.18451581  0.41133540  0.86498963     0.05700
C414        C  0.20795921  0.37716320  0.85526888    -0.02900
Br415      Br  0.22618073  0.36673779  0.78481802    -0.02500
H416        H  0.22980062  0.32178085  0.88397336     0.09600
H417        H  0.14043666  0.43585170  0.91620577     0.07600
Br418      Br  0.11436571  0.38216619  0.98398158    -0.03000
C419        C  0.20442263  0.39771196  0.54328992    -0.09600
C420        C  0.21009006  0.35462290  0.55136757     0.06600
C421        C  0.20675730  0.34800763  0.60825451    -0.03400
C422        C  0.19850411  0.37890873  0.64661311    -0.07400
C423        C  0.19018485  0.41823665  0.63387019     0.05700
C424        C  0.18963505  0.42629177  0.58023185    -0.02900
Br425      Br  0.16092766  0.47194901  0.55352794    -0.02500
H426        H  0.21138293  0.41219244  0.50695077     0.09600
H427        H  0.19554521  0.37169873  0.68779787     0.07600
Br428      Br  0.20201044  0.30039829  0.64529417    -0.03000
C429        C  0.17536297  0.08168027  0.92801091    -0.09600
C430        C  0.18412708  0.09203165  0.87649735     0.06600
C431        C  0.20425935  0.12834355  0.86915080    -0.03400
C432        C  0.21848128  0.15125608  0.91273189    -0.07800
C433        C  0.20922535  0.14417981  0.96669799     0.05700
C434        C  0.18346647  0.10742382  0.97154417    -0.02900
Br435      Br  0.14412687  0.09127149  0.52650667    -0.02500
H436        H  0.15973635  0.05358181  0.93386327     0.09600
H437        H  0.23888224  0.17453295  0.90515946     0.07600
Br438      Br  0.21407010  0.14757438  0.79995431    -0.03000
C439        C  0.22436596  0.11022995  0.56392680    -0.09600
C440        C  0.21523530  0.15195198  0.56475582     0.06600
C441        C  0.20396141  0.16208256  0.61972883    -0.03400
C442        C  0.18558948  0.13376498  0.65378682    -0.07800
C443        C  0.19161195  0.09302865  0.64559772     0.05700
C444        C  0.21542672  0.08213119  0.60279508    -0.02900
Br445      Br  0.23613314  0.02882345  0.59615734    -0.02500
H446        H  0.23995931  0.09930093  0.53160291     0.09600
H447        H  0.17382934  0.14327022  0.69199332     0.07600
Br448      Br  0.22640345  0.20239513  0.66705110    -0.03000
O449        O  0.21290789  0.54924444  0.20698013    -0.73400
O450        O  0.21107934  0.96345553  0.31332857    -0.74400
O451        O  0.21563384  0.96361574  0.19994326    -0.63000
O452        O  0.20871982  0.54816286  0.31421743    -0.71400
O453        O  0.14223601  0.54755861  0.31649112    -0.71000
O454        O  0.14945158  0.96470730  0.18970815    -0.62200
O455        O  0.14452315  0.95940318  0.30837019    -0.74700
O456        O  0.14628126  0.55302689  0.20181737    -0.73500
Cu457      Cu  0.21326839  0.00594754  0.25851071     1.04600
Cu458      Cu  0.14281892  0.50590005  0.25414173     1.04300
C459        C  0.18132805  0.56575577  0.18856040     0.92800
C460        C  0.17834042  0.94759780  0.32845794     0.91900
C461        C  0.18445498  0.95123394  0.17510300     0.84100
C462        C  0.17607192  0.56172112  0.33323277     0.90400
C463        C  0.22579613  0.67839450  0.50920154    -0.02900
C464        C  0.21726576  0.82151580  0.99825743    -0.02900
O465        O  0.27628382  0.52068698  0.29867885    -0.73400
O466        O  0.29480794  0.95171830  0.17183807    -0.74400
O467        O  0.27857323  0.93482483  0.27600793    -0.63000
O468        O  0.28719904  0.53263002  0.18928324    -0.71400
O469        O  0.35381324  0.53469148  0.19500891    -0.71000
O470        O  0.34328905  0.93662928  0.29715633    -0.62200
O471        O  0.36104839  0.94923532  0.18669043    -0.74700
O472        O  0.34182723  0.52649765  0.30894623    -0.73500
Cu473      Cu  0.28244073  0.98471001  0.23396660     1.04600
Cu474      Cu  0.35259111  0.98644710  0.24829840     1.04300
C475        C  0.30589073  0.53775097  0.32132783     0.92800
C476        C  0.33033283  0.94043299  0.15852845     0.91900
C477        C  0.30832935  0.91964967  0.30046479     0.84100
C478        C  0.32034353  0.54804918  0.17544002     0.90400
C479        C  0.28643600  0.67208809  0.00398586    -0.02900
C480        C  0.27787294  0.82018435  0.99595235    -0.02900
O481        O  0.46832014  0.64856359  0.30952585    -0.73400
O482        O  0.05604523  0.64753126  0.19233510    -0.74400
O483        O  0.05884381  0.64795230  0.30280739    -0.63000
O484        O  0.46794172  0.64849016  0.19198527    -0.71400
O485        O  0.47267785  0.71434203  0.19205922    -0.71000
O486        O  0.05667945  0.71390346  0.30622428    -0.62200
O487        O  0.05731467  0.71321794  0.20065614    -0.74700
O488        O  0.46712701  0.71457992  0.30675839    -0.73500
Cu489      Cu  0.01235368  0.64553571  0.24948334     1.04600
Cu490      Cu  0.01295304  0.71587487  0.25181683     1.04300
C491        C  0.45333540  0.68215310  0.32609169     0.92800
C492        C  0.07189892  0.68132763  0.18117573     0.91900
C493        C  0.07401357  0.68133017  0.31851239     0.84100
C494        C  0.45815346  0.68238824  0.17203488     0.90400
C495        C  0.18299926  0.72071440  0.00113094    -0.02900
C496        C  0.32577915  0.71599961  0.00117529    -0.02900
O497        O  0.44672966  0.84785812  0.19435306    -0.73400
O498        O  0.03422019  0.85317497  0.31249512    -0.74400
O499        O  0.03584605  0.84493862  0.19556343    -0.63000
O500        O  0.44871349  0.86190923  0.30719463    -0.71400
O501        O  0.45500112  0.79670063  0.32016489    -0.71000
O502        O  0.02609399  0.78020226  0.19319270    -0.62200
O503        O  0.03522505  0.78735489  0.30525029    -0.74700
O504        O  0.44085754  0.78351981  0.21135772    -0.73500
Cu505      Cu  0.99184973  0.85487828  0.25158923     1.04600
Cu506      Cu  0.98927317  0.78520216  0.25760200     1.04300
C507        C  0.42925004  0.81384459  0.18602335     0.92800
C508        C  0.04582529  0.81881906  0.32961368     0.91900
C509        C  0.04476361  0.81052915  0.17571344     0.84100
C510        C  0.43869991  0.83050358  0.33176512     0.90400
C511        C  0.17448761  0.78000568  0.99680610    -0.02900
C512        C  0.32136393  0.77724824  0.99769279    -0.02900
C513        C  0.40096996  0.85243353  0.41438515    -0.09600
C514        C  0.40436661  0.82954580  0.36860021     0.06600
C515        C  0.37941407  0.79718491  0.36359616    -0.03400
C516        C  0.36721366  0.77943043  0.41059294    -0.07800
C517        C  0.35361618  0.80024522  0.45491051     0.05700
C518        C  0.37406909  0.84069116  0.45559943    -0.02900
Br519      Br  0.38424485  0.87902604  0.51259002    -0.02500
H520        H  0.42059108  0.87819674  0.41875326     0.09600
H521        H  0.39272870  0.76130810  0.42292782     0.07600
Br522      Br  0.37645274  0.77109669  0.29490704    -0.03000
C523        C  0.36257838  0.78740394  0.14613038    -0.09600
C524        C  0.40051905  0.80670338  0.14136110     0.06600
C525        C  0.41403896  0.81432732  0.09099849    -0.03400
C526        C  0.39171815  0.80123856  0.04767884    -0.07800
C527        C  0.35018744  0.78746511  0.04876048     0.05700
C528        C  0.33802897  0.77761852  0.10020136    -0.02900
Br529      Br  0.28369643  0.75893740  0.10183059    -0.02500
H530        H  0.35073347  0.78307321  0.18538511     0.09600
H531        H  0.41049260  0.80003878  0.01296292     0.07600
Br532      Br  0.46414826  0.84190530  0.07806849    -0.03000
C533        C  0.10386721  0.76619301  0.43867785    -0.09600
C534        C  0.14134673  0.78746644  0.44417717     0.06600
C535        C  0.14132964  0.81476367  0.39970602    -0.03400
C536        C  0.10632325  0.83560305  0.38350470    -0.07800
C537        C  0.07185863  0.81292668  0.37700305     0.05700
C538        C  0.07085658  0.77676718  0.40512437    -0.02900
Br539      Br  0.02159239  0.74638552  0.40902592    -0.02500
H540        H  0.09843035  0.74202519  0.46332899     0.09600
H541        H  0.10933300  0.86217206  0.35933499     0.07600
Br542      Br  0.15323571  0.79916025  0.32671286    -0.03000
C543        C  0.07663173  0.77325945  0.09681013    -0.09600
C544        C  0.07638179  0.80579877  0.13230874     0.06600
C545        C  0.10435920  0.83535306  0.11978008    -0.03400
C546        C  0.13252507  0.82900236  0.07754158    -0.07800
C547        C  0.13635713  0.79451364  0.04230392     0.05700
C548        C  0.09603398  0.77707629  0.04681689    -0.02900
Br549      Br  0.05146111  0.80751494  0.01523913    -0.02500
H550        H  0.05689731  0.74855329  0.10353308     0.09600
H551        H  0.14391767  0.85673812  0.06921099     0.07600
Br552      Br  0.10190713  0.88719171  0.15333888    -0.03000
C553        C  0.39117965  0.66855202  0.13097380    -0.09600
C554        C  0.42860682  0.68604181  0.12725735     0.06600
C555        C  0.43306300  0.71332149  0.08624946    -0.03400
C556        C  0.40121760  0.72135875  0.05075316    -0.07800
C557        C  0.36012737  0.70736516  0.05394861     0.05700
C558        C  0.35788183  0.68766272  0.10639787    -0.02900
Br559      Br  0.33543574  0.70513102  0.17500706    -0.02500
H560        H  0.38673194  0.64731203  0.16285723     0.09600
H561        H  0.41065896  0.73707788  0.01622552     0.07600
Br562      Br  0.48286966  0.73757445  0.07177065    -0.03000
C563        C  0.38028832  0.69561220  0.35372150    -0.09600
C564        C  0.41973049  0.68461672  0.36744097     0.06600
C565        C  0.42500440  0.67494209  0.42036037    -0.03400
C566        C  0.39319291  0.68057620  0.45713101    -0.07800
C567        C  0.35557848  0.70296354  0.44893630     0.05700
C568        C  0.34938663  0.70573743  0.39156989    -0.02900
Br569      Br  0.30072766  0.71728698  0.35699079    -0.02500
H570        H  0.37288860  0.69474407  0.31196543     0.09600
H571        H  0.39867077  0.66458976  0.49287591     0.07600
Br572      Br  0.47357863  0.64954597  0.44425008    -0.03000
C573        C  0.14258634  0.70893455  0.34951799    -0.09600
C574        C  0.10921807  0.68298309  0.35512550     0.06600
C575        C  0.10757827  0.66149303  0.40070979    -0.03400
C576        C  0.13161939  0.67308436  0.44287760    -0.07800
C577        C  0.15981839  0.70521787  0.44539282     0.05700
C578        C  0.16854182  0.71845964  0.39372020    -0.02900
Br579      Br  0.21635020  0.74785342  0.38592591    -0.02500
H580        H  0.14905500  0.72026976  0.31080345     0.09600
H581        H  0.12821747  0.65311556  0.47284467     0.07600
Br582      Br  0.07291078  0.61558351  0.40893897    -0.03000
C583        C  0.15569444  0.72678753  0.09850633    -0.09600
C584        C  0.15002938  0.70934809  0.04875715     0.06600
C585        C  0.11481538  0.68288817  0.05058892    -0.03400
C586        C  0.10288641  0.66377480  0.09659502    -0.07800
C587        C  0.10519074  0.68551629  0.14282248     0.05700
C588        C  0.13219340  0.71800898  0.14434610    -0.02900
Br589      Br  0.13720138  0.74996957  0.20756444    -0.02500
H590        H  0.18023203  0.74607146  0.09947348     0.09600
H591        H  0.08050066  0.64009709  0.09415986     0.07600
Br592      Br  0.06296039  0.68905923  0.01504259    -0.03000
C593        C  0.34283944  0.87716150  0.11394105    -0.09600
C594        C  0.33364849  0.91674908  0.10981053     0.06600
C595        C  0.30712243  0.92678070  0.07068221    -0.03400
C596        C  0.28618214  0.89766253  0.04138597    -0.07800
C597        C  0.29204840  0.85502356  0.04446246     0.05700
C598        C  0.31344502  0.85027782  0.09426271    -0.02900
Br599      Br  0.28914811  0.84603021  0.16250567    -0.02500
H600        H  0.36168867  0.87011180  0.14787808     0.09600
H601        H  0.26653290  0.91215697  0.01565758     0.07600
Br602      Br  0.30249843  0.98116086  0.05670062    -0.03000
C603        C  0.28177611  0.90866061  0.38739316    -0.09600
C604        C  0.29856382  0.89060991  0.34332452     0.06600
C605        C  0.30039781  0.84818418  0.34451814    -0.03400
C606        C  0.29329299  0.82721371  0.39281820    -0.07800
C607        C  0.28745355  0.84670175  0.44302278     0.05700
C608        C  0.28605418  0.89005431  0.43583507    -0.02900
Br609      Br  0.33047008  0.92896064  0.44163689    -0.02500
H610        H  0.26916603  0.93909121  0.38459105     0.09600
H611        H  0.28977806  0.79526414  0.39095608     0.07600
Br612      Br  0.29563619  0.81749283  0.28166993    -0.03000
C613        C  0.26955179  0.57008420  0.39948586    -0.09600
C614        C  0.29847357  0.57186368  0.35996376     0.06600
C615        C  0.32341510  0.60475425  0.36229423    -0.03400
C616        C  0.32054085  0.63236038  0.40527990    -0.07800
C617        C  0.29263363  0.63469967  0.44905495     0.05700
C618        C  0.27318528  0.59472651  0.44607019    -0.02900
Br619      Br  0.28468488  0.55055189  0.48935098    -0.02500
H620        H  0.25019260  0.54378962  0.39905533     0.09600
H621        H  0.35063053  0.63855225  0.41088708     0.07600
Br622      Br  0.36701517  0.60904404  0.31173603    -0.03000
C623        C  0.33144640  0.57455589  0.08457203    -0.09600
C624        C  0.31790415  0.58079354  0.13559949     0.06600
C625        C  0.29848215  0.61705834  0.14629649    -0.03400
C626        C  0.29171138  0.64550543  0.10537837    -0.07800
C627        C  0.30433369  0.64133102  0.05222207     0.05700
C628        C  0.33215447  0.60631599  0.04824690    -0.02900
Br629      Br  0.39094361  0.60585155  0.04127566    -0.02500
H630        H  0.34823811  0.54707435  0.07671069     0.09600
H631        H  0.27892266  0.67360076  0.11425827     0.07600
Br632      Br  0.28303009  0.62771848  0.21760111    -0.03000
C633        C  0.21190856  0.85125485  0.39748921    -0.09600
C634        C  0.19911565  0.85390557  0.45149416     0.06600
C635        C  0.16531599  0.88460090  0.45239635    -0.03400
C636        C  0.16336771  0.91711771  0.41682141    -0.07800
C637        C  0.18152882  0.91461788  0.36813425     0.05700
C638        C  0.20241606  0.87942997  0.35707562    -0.02900
Br639      Br  0.21248276  0.86787184  0.28467794    -0.02500
H640        H  0.22367988  0.82372200  0.38375094     0.09600
H641        H  0.14348363  0.94262945  0.42400782     0.07600
Br642      Br  0.11331784  0.88806241  0.48663658    -0.03000
C643        C  0.20045078  0.89809774  0.04030073    -0.09600
C644        C  0.20990887  0.85540760  0.04882041     0.06600
C645        C  0.21069927  0.85013282  0.10612402    -0.03400
C646        C  0.20446321  0.88195097  0.14379084    -0.07400
C647        C  0.19048699  0.91985608  0.13137949     0.05700
C648        C  0.18541538  0.92633404  0.07768112    -0.02900
Br649      Br  0.15364654  0.97026598  0.05180397    -0.02500
H650        H  0.20615912  0.91333932  0.00409760     0.09600
H651        H  0.20716718  0.87609217  0.18488809     0.07600
Br652      Br  0.20663677  0.80340082  0.14603132    -0.03000
C653        C  0.17230171  0.58251321  0.42757600    -0.09600
C654        C  0.18018410  0.59272845  0.37587060     0.06600
C655        C  0.20182269  0.62800964  0.36767464    -0.03400
C656        C  0.21742583  0.65083595  0.41030155    -0.07800
C657        C  0.20845344  0.64427853  0.46475326     0.05700
C658        C  0.18212482  0.60796982  0.47067512    -0.02900
Br659      Br  0.14455282  0.59062185  0.02532280    -0.02500
H660        H  0.15607855  0.55482061  0.43399265     0.09600
H661        H  0.23758962  0.67446650  0.40083983     0.07600
Br662      Br  0.20933731  0.64731326  0.29817113    -0.03000
C663        C  0.22354107  0.61233426  0.06683638    -0.09600
C664        C  0.21527105  0.65400523  0.06757706     0.06600
C665        C  0.20375947  0.66476982  0.12242958    -0.03400
C666        C  0.18490901  0.63684694  0.15665870    -0.07800
C667        C  0.18816626  0.59602849  0.14717217     0.05700
C668        C  0.21152069  0.58460779  0.10438522    -0.02900
Br669      Br  0.22230365  0.52996857  0.09161967    -0.02500
H670        H  0.24040934  0.60098129  0.03547755     0.09600
H671        H  0.17322819  0.64652780  0.19475054     0.07600
Br672      Br  0.22508782  0.70585539  0.16958672    -0.03000
O673        O  0.21770735  0.54728529  0.70606858    -0.73400
O674        O  0.21460701  0.96110307  0.81258410    -0.74400
O675        O  0.21816143  0.96210277  0.70018001    -0.63000
O676        O  0.21357953  0.54736239  0.81359743    -0.71400
O677        O  0.14706239  0.54701654  0.81720958    -0.71000
O678        O  0.15147782  0.96376893  0.69287732    -0.62200
O679        O  0.14785938  0.95880921  0.80937407    -0.74700
O680        O  0.15086997  0.55186068  0.70271772    -0.73500
Cu681      Cu  0.21764755  0.00426225  0.75859341     1.04600
Cu682      Cu  0.14674104  0.50534140  0.75536589     1.04300
C683        C  0.18586575  0.56370519  0.68787303     0.92800
C684        C  0.18169051  0.94528192  0.82723787     0.91900
C685        C  0.18597229  0.94992460  0.67721063     0.84100
C686        C  0.18099384  0.56125880  0.83325224     0.90400
C687        C  0.22610386  0.67873790  0.01151168    -0.02900
C688        C  0.21661805  0.82218547  0.50010140    -0.02900
O689        O  0.28950848  0.53183461  0.79797654    -0.73400
O690        O  0.30023704  0.95601212  0.67529921    -0.74400
O691        O  0.28695347  0.94576609  0.78186955    -0.63000
O692        O  0.29838487  0.53830331  0.68679416    -0.71400
O693        O  0.36513231  0.53800260  0.69098531    -0.71000
O694        O  0.35253014  0.94254084  0.79787624    -0.62200
O695        O  0.36686720  0.95144186  0.68628322    -0.74700
O696        O  0.35570612  0.53229910  0.80739123    -0.73500
Cu697      Cu  0.29193668  0.99291273  0.73552702     1.04600
Cu698      Cu  0.36275227  0.99098250  0.74647030     1.04300
C699        C  0.32078436  0.54525806  0.82194236     0.92800
C700        C  0.33467639  0.94200925  0.66141975     0.91900
C701        C  0.31648502  0.92861907  0.80446573     0.84100
C702        C  0.33195724  0.55229801  0.67148985     0.90400
C703        C  0.28595179  0.67252632  0.49887484    -0.02900
C704        C  0.27695835  0.82094198  0.49867569    -0.02900
O705        O  0.46641536  0.64445405  0.80538482    -0.73400
O706        O  0.05694185  0.64599275  0.69247570    -0.74400
O707        O  0.05799094  0.64603478  0.80376204    -0.63000
O708        O  0.46871561  0.64592231  0.68835769    -0.71400
O709        O  0.47188046  0.71182199  0.69066841    -0.71000
O710        O  0.05568245  0.71191370  0.80634238    -0.62200
O711        O  0.05696337  0.71182110  0.70000901    -0.74700
O712        O  0.46567420  0.71048726  0.80574117    -0.73500
Cu713      Cu  0.01219004  0.64304862  0.74782536     1.04600
Cu714      Cu  0.01203112  0.71338406  0.75110597     1.04300
C715        C  0.45103511  0.67758792  0.82270401     0.92800
C716        C  0.07213827  0.67995552  0.68085750     0.91900
C717        C  0.07311462  0.67957612  0.81945540     0.84100
C718        C  0.45816157  0.67995369  0.66927798     0.90400
C719        C  0.18275192  0.72061747  0.50006846    -0.02900
C720        C  0.32509412  0.71748315  0.49946952    -0.02900
O721        O  0.44586458  0.84645047  0.69410290    -0.73400
O722        O  0.03382785  0.85116989  0.81052488    -0.74400
O723        O  0.03551582  0.84522894  0.69440222    -0.63000
O724        O  0.44760595  0.85667375  0.80567204    -0.71400
O725        O  0.45474104  0.79112150  0.81490295    -0.71000
O726        O  0.02709236  0.78014812  0.69080806    -0.62200
O727        O  0.03572883  0.78537636  0.80218401    -0.74700
O728        O  0.44159875  0.78146304  0.70809027    -0.73500
Cu729      Cu  0.99111316  0.85283552  0.75048593     1.04600
Cu730      Cu  0.98990840  0.78280153  0.75397001     1.04300
C731        C  0.42870458  0.81240062  0.68526621     0.92800
C732        C  0.04641823  0.81687037  0.82651077     0.91900
C733        C  0.04526342  0.81108316  0.67439108     0.84100
C734        C  0.43742262  0.82404486  0.82730000     0.90400
C735        C  0.17427327  0.78014550  0.49754359    -0.02900
C736        C  0.32096346  0.77897240  0.49833858    -0.02900
C737        C  0.39968345  0.84642063  0.90777504    -0.09600
C738        C  0.40381592  0.82142184  0.86432521     0.06600
C739        C  0.38037224  0.78748673  0.86171464    -0.03400
C740        C  0.36646751  0.77250294  0.90938185    -0.07800
C741        C  0.35359027  0.79568493  0.95251244     0.05700
C742        C  0.37382555  0.83596609  0.95007693    -0.02900
Br743      Br  0.38234474  0.87737136  0.00302010    -0.02500
H744        H  0.41805720  0.87323698  0.90938793     0.09600
H745        H  0.39283817  0.75619454  0.92237457     0.07600
Br746      Br  0.37764297  0.75720494  0.79569014    -0.03000
C747        C  0.36138966  0.78717952  0.64644958    -0.09600
C748        C  0.39960296  0.80602810  0.64150701     0.06600
C749        C  0.41400703  0.81245010  0.59145445    -0.03400
C750        C  0.39166023  0.79974679  0.54835054    -0.07800
C751        C  0.34955325  0.78797611  0.54951444     0.05700
C752        C  0.33688739  0.77797650  0.60042350    -0.02900
Br753      Br  0.28228091  0.75954727  0.60109942    -0.02500
H754        H  0.34963599  0.78234593  0.68565852     0.09600
H755        H  0.41029357  0.79853145  0.51343802     0.07600
Br756      Br  0.46523852  0.83815978  0.57863445    -0.03000
C757        C  0.10404862  0.76620479  0.93778345    -0.09600
C758        C  0.14206972  0.78672079  0.94227883     0.06600
C759        C  0.14314569  0.81249973  0.89562131    -0.03400
C760        C  0.10858009  0.83305849  0.87719512    -0.07800
C761        C  0.07354290  0.81119959  0.87281232     0.05700
C762        C  0.07148123  0.77644144  0.90342796    -0.02900
Br763      Br  0.02132411  0.74783689  0.90871736    -0.02500
H764        H  0.09808817  0.74241027  0.96307705     0.09600
H765        H  0.11187850  0.85864169  0.85125763     0.07600
Br766      Br  0.15870032  0.79790048  0.82333398    -0.03000
C767        C  0.07840845  0.77277124  0.59871900    -0.09600
C768        C  0.07707362  0.80675019  0.63177010     0.06600
C769        C  0.10267155  0.83757616  0.61588472    -0.03400
C770        C  0.13085472  0.83044206  0.57388404    -0.07800
C771        C  0.13647857  0.79409545  0.54288248     0.05700
C772        C  0.09679064  0.77580793  0.54827825    -0.02900
Br773      Br  0.05116821  0.80505396  0.51667403    -0.02500
H774        H  0.05842046  0.74827287  0.60615810     0.09600
H775        H  0.14331905  0.85742130  0.56420756     0.07600
Br776      Br  0.09553841  0.89160559  0.64161382    -0.03000
C777        C  0.39105767  0.66688254  0.62658285    -0.09600
C778        C  0.42878743  0.68391082  0.62374861     0.06600
C779        C  0.43361969  0.71146116  0.58307204    -0.03400
C780        C  0.40173976  0.72031764  0.54749962    -0.07800
C781        C  0.35983809  0.70810443  0.55195654     0.05700
C782        C  0.35796381  0.68794578  0.60405971    -0.02900
Br783      Br  0.33371707  0.70391703  0.67188404    -0.02500
H784        H  0.38631269  0.64631595  0.65904595     0.09600
H785        H  0.41140308  0.73561166  0.51257574     0.07600
Br786      Br  0.48401336  0.73516760  0.57044059    -0.03000
C787        C  0.37632606  0.68187936  0.85376561    -0.09600
C788        C  0.41789021  0.67889996  0.86485639     0.06600
C789        C  0.42716952  0.67773830  0.91806556    -0.03400
C790        C  0.39726839  0.68485058  0.95650085    -0.07800
C791        C  0.35596347  0.70003049  0.94958384     0.05700
C792        C  0.34701469  0.69525673  0.89269654    -0.02900
Br793      Br  0.29907559  0.70881562  0.85843663    -0.02500
H794        H  0.36701939  0.67725192  0.81294388     0.09600
H795        H  0.40653230  0.67068759  0.99173004     0.07600
Br796      Br  0.47771595  0.65584479  0.94110222    -0.03000
C797        C  0.14220036  0.70781273  0.85076902    -0.09600
C798        C  0.10855205  0.68188908  0.85656779     0.06600
C799        C  0.10729482  0.66062619  0.90246785    -0.03400
C800        C  0.13162861  0.67237995  0.94442963    -0.07800
C801        C  0.15973472  0.70464608  0.94672816     0.05700
C802        C  0.16857279  0.71738205  0.89483971    -0.02900
Br803      Br  0.21722854  0.74655471  0.88785946    -0.02500
H804        H  0.14857272  0.71904323  0.81210115     0.09600
H805        H  0.12853006  0.65242422  0.97436653     0.07600
Br806      Br  0.07307422  0.61452054  0.91129644    -0.03000
C807        C  0.15640763  0.72440629  0.59762026    -0.09600
C808        C  0.14966746  0.70838242  0.54741082     0.06600
C809        C  0.11325327  0.68321396  0.54903843    -0.03400
C810        C  0.10085813  0.66383163  0.59469597    -0.07800
C811        C  0.10504018  0.68401320  0.64178737     0.05700
C812        C  0.13317271  0.71534754  0.64383135    -0.02900
Br813      Br  0.13944702  0.74461247  0.70890204    -0.02500
H814        H  0.18240607  0.74176055  0.59826819     0.09600
H815        H  0.07752972  0.64105654  0.59211991     0.07600
Br816      Br  0.06201025  0.68834981  0.51169016    -0.03000
C817        C  0.33951541  0.87538473  0.62229253    -0.09600
C818        C  0.33532814  0.91543186  0.61512020     0.06600
C819        C  0.31295127  0.92727441  0.57278979    -0.03400
C820        C  0.29074517  0.89968796  0.54194063    -0.07800
C821        C  0.29195293  0.85633030  0.54678833     0.05700
C822        C  0.31003713  0.85031259  0.59873625    -0.02900
Br823      Br  0.28311861  0.84412145  0.66467531    -0.02500
H824        H  0.35574741  0.86735347  0.65824137     0.09600
H825        H  0.27288253  0.91624573  0.51563379     0.07600
Br826      Br  0.32121900  0.98087098  0.55404710    -0.03000
C827        C  0.28362161  0.91240965  0.88763395    -0.09600
C828        C  0.30593430  0.89811593  0.84549512     0.06600
C829        C  0.31147831  0.85638187  0.84430186    -0.03400
C830        C  0.29946937  0.83184098  0.88852616    -0.07800
C831        C  0.28984672  0.84819319  0.94071706     0.05700
C832        C  0.28560023  0.89190830  0.93526307    -0.02900
Br833      Br  0.32601526  0.93465964  0.94762868    -0.02500
H834        H  0.26808088  0.94147848  0.88471402     0.09600
H835        H  0.29689624  0.79995018  0.88181153     0.07600
Br836      Br  0.32426185  0.83386378  0.77793732    -0.03000
C837        C  0.27762739  0.57956705  0.89109378    -0.09600
C838        C  0.31522388  0.57550217  0.86675967     0.06600
C839        C  0.34631776  0.59507516  0.89387612    -0.03400
C840        C  0.33637873  0.62146986  0.93697065    -0.07800
C841        C  0.29696078  0.63492174  0.95523060     0.05700
C842        C  0.27438004  0.59869898  0.94147189    -0.02900
Br843      Br  0.27566901  0.55058293  0.98104677    -0.02500
H844        H  0.25642100  0.55636436  0.88184703     0.09600
H845        H  0.36123849  0.62809476  0.95841384     0.07600
Br846      Br  0.40229493  0.58155539  0.88196344    -0.03000
C847        C  0.34926742  0.58405254  0.58344629    -0.09600
C848        C  0.32943402  0.58556340  0.63156648     0.06600
C849        C  0.30212566  0.61687849  0.63881188    -0.03400
C850        C  0.29327827  0.64421946  0.59740016    -0.07800
C851        C  0.30622483  0.64118712  0.54432123     0.05700
C852        C  0.33957532  0.61051770  0.54087963    -0.02900
Br853      Br  0.37494488  0.59148283  0.48460528    -0.02500
H854        H  0.37146421  0.56019335  0.57856025     0.09600
H855        H  0.27875388  0.67151680  0.60661525     0.07600
Br856      Br  0.28143333  0.62491778  0.70885525    -0.03000
C857        C  0.21532906  0.84878091  0.89597853    -0.09600
C858        C  0.20048659  0.85164613  0.94879857     0.06600
C859        C  0.16520148  0.88021992  0.94760995    -0.03400
C860        C  0.16234090  0.91191371  0.91122135    -0.07800
C861        C  0.18417515  0.91126648  0.86511569     0.05700
C862        C  0.20755995  0.87708926  0.85530285    -0.02900
Br863      Br  0.22539446  0.86651543  0.78470341    -0.02500
H864        H  0.22961398  0.82185863  0.88396170     0.09600
H865        H  0.14041735  0.93597602  0.91666606     0.07600
Br866      Br  0.11489421  0.88262980  0.98536155    -0.03000
C867        C  0.20536307  0.89805448  0.54366026    -0.09600
C868        C  0.21030560  0.85493667  0.55176189     0.06600
C869        C  0.20650042  0.84825325  0.60857741    -0.03400
C870        C  0.19777197  0.87909713  0.64678194    -0.07400
C871        C  0.19006171  0.91848749  0.63394520     0.05700
C872        C  0.19053377  0.92675829  0.58037972    -0.02900
Br873      Br  0.16305538  0.97300596  0.55327710    -0.02500
H874        H  0.21256736  0.91230871  0.50726403     0.09600
H875        H  0.19420528  0.87188379  0.68789947     0.07600
Br876      Br  0.20211795  0.80071649  0.64582165    -0.03000
C877        C  0.17556503  0.58203205  0.92791693    -0.09600
C878        C  0.18448496  0.59237680  0.87643035     0.06600
C879        C  0.20455602  0.62876360  0.86925277    -0.03400
C880        C  0.21864238  0.65167172  0.91294134    -0.07800
C881        C  0.20934474  0.64451537  0.96688153     0.05700
C882        C  0.18356271  0.60775005  0.97154636    -0.02900
Br883      Br  0.14433241  0.59170787  0.52638729    -0.02500
H884        H  0.15992210  0.55393149  0.93367291     0.09600
H885        H  0.23905322  0.67497575  0.90546664     0.07600
Br886      Br  0.21447559  0.64817211  0.80018238    -0.03000
C887        C  0.22454730  0.61075670  0.56402037    -0.09600
C888        C  0.21558296  0.65250437  0.56500731     0.06600
C889        C  0.20446551  0.66259955  0.62008138    -0.03400
C890        C  0.18616425  0.63428495  0.65423175    -0.07800
C891        C  0.19176566  0.59353370  0.64571632     0.05700
C892        C  0.21520323  0.58261257  0.60263321    -0.02900
Br893      Br  0.23388963  0.52884423  0.59448916    -0.02500
H894        H  0.23998501  0.59973790  0.53170975     0.09600
H895        H  0.17461439  0.64374741  0.69255770     0.07600
Br896      Br  0.22683051  0.70298361  0.66733169    -0.03000
O897        O  0.71276875  0.04912347  0.20683000    -0.73400
O898        O  0.71151528  0.46319353  0.31302926    -0.74400
O899        O  0.71555662  0.46364039  0.19965123    -0.63000
O900        O  0.70819143  0.04831961  0.31398133    -0.71400
O901        O  0.64170058  0.04738219  0.31620892    -0.71000
O902        O  0.64928020  0.46465963  0.19027676    -0.62200
O903        O  0.64491223  0.45952695  0.30882762    -0.74700
O904        O  0.64615400  0.05299638  0.20146920    -0.73500
Cu905      Cu  0.71360001  0.50594470  0.25846066     1.04600
Cu906      Cu  0.64260097  0.00589701  0.25371229     1.04300
C907        C  0.68124326  0.06555444  0.18816146     0.92800
C908        C  0.67880133  0.44738172  0.32836225     0.91900
C909        C  0.68417344  0.45111946  0.17530661     0.84100
C910        C  0.67547103  0.06161710  0.33305976     0.90400
C911        C  0.72548778  0.17791972  0.50898824    -0.02900
C912        C  0.71705762  0.32138640  0.99810406    -0.02900
O913        O  0.77565220  0.02017877  0.29854089    -0.73400
O914        O  0.79491181  0.45143166  0.17272080    -0.74400
O915        O  0.77964677  0.43551029  0.27723522    -0.63000
O916        O  0.78730793  0.03296204  0.18961718    -0.71400
O917        O  0.85390790  0.03448701  0.19551198    -0.71000
O918        O  0.84454772  0.43743015  0.29740167    -0.62200
O919        O  0.86131146  0.44956429  0.18635102    -0.74700
O920        O  0.84116492  0.02584586  0.30925687    -0.73500
Cu921      Cu  0.78288896  0.48492595  0.23446009     1.04600
Cu922      Cu  0.85315429  0.48704770  0.24803282     1.04300
C923        C  0.80521193  0.03715154  0.32137033     0.92800
C924        C  0.83035979  0.44036940  0.15880339     0.91900
C925        C  0.80962143  0.42050493  0.30139249     0.84100
C926        C  0.82057598  0.04818412  0.17591681     0.90400
C927        C  0.78636562  0.17190463  0.00384030    -0.02900
C928        C  0.77769414  0.32010646  0.99583051    -0.02900
O929        O  0.96822184  0.14742618  0.30950339    -0.73400
O930        O  0.55583743  0.14694657  0.19198825    -0.74400
O931        O  0.55877913  0.14724410  0.30254398    -0.63000
O932        O  0.96767279  0.14761356  0.19182055    -0.71400
O933        O  0.97210484  0.21349575  0.19233220    -0.71000
O934        O  0.55627205  0.21318246  0.30606537    -0.62200
O935        O  0.55673131  0.21263435  0.20042160    -0.74700
O936        O  0.96687092  0.21345288  0.30705521    -0.73500
Cu937      Cu  0.51222396  0.14463515  0.24926888     1.04600
Cu938      Cu  0.51247113  0.21498637  0.25182903     1.04300
C939        C  0.95319610  0.18093736  0.32630137     0.92800
C940        C  0.57145538  0.18084661  0.18078987     0.91900
C941        C  0.57377957  0.18069587  0.31828993     0.84100
C942        C  0.95774234  0.18155536  0.17208320     0.90400
C943        C  0.68286661  0.22049853  0.00079084    -0.02900
C944        C  0.82565087  0.21582979  0.00100684    -0.02900
O945        O  0.94623478  0.34741149  0.19424238    -0.73400
O946        O  0.53430482  0.35271875  0.31137244    -0.74400
O947        O  0.53527950  0.34452887  0.19455590    -0.63000
O948        O  0.94878958  0.36123883  0.30700611    -0.71400
O949        O  0.95553474  0.29605653  0.31975721    -0.71000
O950        O  0.52580365  0.27973162  0.19209616    -0.62200
O951        O  0.53568611  0.28690127  0.30386358    -0.74700
O952        O  0.94070559  0.28298923  0.21092335    -0.73500
Cu953      Cu  0.49156675  0.35431300  0.25097784     1.04600
Cu954      Cu  0.48939517  0.28459678  0.25678541     1.04300
C955        C  0.92883589  0.31337187  0.18588934     0.92800
C956        C  0.54623605  0.31839546  0.32820893     0.91900
C957        C  0.54429391  0.31016418  0.17463528     0.84100
C958        C  0.93904565  0.32973658  0.33154798     0.90400
C959        C  0.67435034  0.27980846  0.99632157    -0.02900
C960        C  0.82112751  0.27706991  0.99747153    -0.02900
C961        C  0.90085543  0.35168187  0.41397163    -0.09600
C962        C  0.90477274  0.32847072  0.36850113     0.06600
C963        C  0.88016160  0.29583269  0.36362413    -0.03400
C964        C  0.86763704  0.27837603  0.41066917    -0.07800
C965        C  0.85358608  0.29942357  0.45456234     0.05700
C966        C  0.87386734  0.33994950  0.45509827    -0.02900
Br967      Br  0.88347031  0.37835058  0.51211468    -0.02500
H968        H  0.92016463  0.37767939  0.41824722     0.09600
H969        H  0.89292652  0.26013344  0.42342445     0.07600
Br970      Br  0.87756070  0.26937976  0.29505391    -0.03000
C971        C  0.86202396  0.28718781  0.14602287    -0.09600
C972        C  0.90005015  0.30631946  0.14129043     0.06600
C973        C  0.91365067  0.31390288  0.09095561    -0.03400
C974        C  0.89132977  0.30095775  0.04760349    -0.07800
C975        C  0.84981986  0.28722381  0.04860646     0.05700
C976        C  0.83753978  0.27739340  0.10002304    -0.02900
Br977      Br  0.78319133  0.25872262  0.10152575    -0.02500
H978        H  0.85013204  0.28292799  0.18527919     0.09600
H979        H  0.91015364  0.29970997  0.01295090     0.07600
Br980      Br  0.96393198  0.34117649  0.07806493    -0.03000
C981        C  0.60392052  0.26612406  0.43784266    -0.09600
C982        C  0.64152103  0.28716877  0.44331071     0.06600
C983        C  0.64187864  0.31422813  0.39846194    -0.03400
C984        C  0.60703274  0.33503423  0.38157236    -0.07800
C985        C  0.57242175  0.31256436  0.37542379     0.05700
C986        C  0.57107119  0.27668937  0.40406755    -0.02900
Br987      Br  0.52154524  0.24667418  0.40818657    -0.02500
H988        H  0.59831300  0.24201468  0.46253579     0.09600
H989        H  0.61018434  0.36143711  0.35710228     0.07600
Br990      Br  0.65454868  0.29882759  0.32559853    -0.03000
C991        C  0.57633312  0.27295470  0.09590614    -0.09600
C992        C  0.57588233  0.30557650  0.13124840     0.06600
C993        C  0.60369769  0.33525175  0.11865618    -0.03400
C994        C  0.63199101  0.32886038  0.07659129    -0.07800
C995        C  0.63605128  0.29427920  0.04156884     0.05700
C996        C  0.59577464  0.27673624  0.04596347    -0.02900
Br997      Br  0.55108656  0.30698026  0.01427149    -0.02500
H998        H  0.55685700  0.24808709  0.10278405     0.09600
H999        H  0.64328275  0.35659637  0.06813468     0.07600
Br1000     Br  0.60080821  0.38726817  0.15174748    -0.03000
C1001       C  0.89071539  0.16813744  0.13093824    -0.09600
C1002       C  0.92826999  0.18533597  0.12723524     0.06600
C1003       C  0.93287392  0.21272485  0.08636919    -0.03400
C1004       C  0.90106902  0.22108765  0.05092323    -0.07800
C1005       C  0.85994304  0.20718047  0.05390838     0.05700
C1006       C  0.85757845  0.18756513  0.10642607    -0.02900
Br1007     Br  0.83493980  0.20502158  0.17492505    -0.02500
H1008       H  0.88609806  0.14699600  0.16288624     0.09600
H1009       H  0.91064441  0.23685194  0.01650940     0.07600
Br1010     Br  0.98282715  0.23669192  0.07200909    -0.03000
C1011       C  0.88013174  0.19428798  0.35380873    -0.09600
C1012       C  0.91953607  0.18324264  0.36762597     0.06600
C1013       C  0.92470330  0.17366289  0.42061186    -0.03400
C1014       C  0.89278923  0.17934702  0.45723224    -0.07800
C1015       C  0.85534251  0.20200334  0.44885857     0.05700
C1016       C  0.84928743  0.20484052  0.39151139    -0.02900
Br1017     Br  0.80085251  0.21716910  0.35682218    -0.02500
H1018       H  0.87274335  0.19331713  0.31205422     0.09600
H1019       H  0.89812907  0.16341206  0.49308543     0.07600
Br1020     Br  0.97328934  0.14854986  0.44490909    -0.03000
C1021       C  0.64228121  0.20857181  0.34932111    -0.09600
C1022       C  0.60894839  0.18253040  0.35494256     0.06600
C1023       C  0.60728102  0.16109076  0.40057142    -0.03400
C1024       C  0.63133857  0.17268082  0.44269824    -0.07800
C1025       C  0.65955526  0.20480911  0.44515025     0.05700
C1026       C  0.66834378  0.21799406  0.39348532    -0.02900
Br1027     Br  0.71638344  0.24723183  0.38597991    -0.02500
H1028       H  0.64866938  0.21995719  0.31060896     0.09600
H1029       H  0.62791795  0.15269995  0.47269677     0.07600
Br1030     Br  0.57248311  0.11528962  0.40899902    -0.03000
C1031       C  0.65522920  0.22657338  0.09809381    -0.09600
C1032       C  0.64977842  0.20909072  0.04833041     0.06600
C1033       C  0.61457150  0.18261583  0.05003466    -0.03400
C1034       C  0.60242982  0.16355220  0.09601322    -0.07800
C1035       C  0.60466643  0.18524487  0.14229335     0.05700
C1036       C  0.63163511  0.21776368  0.14387745    -0.02900
Br1037     Br  0.63641897  0.24973199  0.20711088    -0.02500
H1038       H  0.67970813  0.24590423  0.09908679     0.09600
H1039       H  0.58004171  0.13988118  0.09348190     0.07600
Br1040     Br  0.56286760  0.18885799  0.01423075    -0.03000
C1041       C  0.84259340  0.37704791  0.11381999    -0.09600
C1042       C  0.83322047  0.41665757  0.10997730     0.06600
C1043       C  0.80621233  0.42660997  0.07125867    -0.03400
C1044       C  0.78550046  0.39740251  0.04180164    -0.07800
C1045       C  0.79176336  0.35483474  0.04447711     0.05700
C1046       C  0.81321213  0.35010930  0.09417304    -0.02900
Br1047     Br  0.78844645  0.34603680  0.16207249    -0.02500
H1048       H  0.86141181  0.36991327  0.14773747     0.09600
H1049       H  0.76577299  0.41174746  0.01606171     0.07600
Br1050     Br  0.80001167  0.48100121  0.05817331    -0.03000
C1051       C  0.78250296  0.40908227  0.38804613    -0.09600
C1052       C  0.80016080  0.39143917  0.34428890     0.06600
C1053       C  0.80209228  0.34909066  0.34501553    -0.03400
C1054       C  0.79411445  0.32766524  0.39273225    -0.07800
C1055       C  0.78774178  0.34671055  0.44323122     0.05700
C1056       C  0.78593161  0.39015563  0.43643153    -0.02900
Br1057     Br  0.82955513  0.42989588  0.44373927    -0.02500
H1058       H  0.76925987  0.43925155  0.38499671     0.09600
H1059       H  0.79058742  0.29571673  0.39015221     0.07600
Br1060     Br  0.79926125  0.31940169  0.28132638    -0.03000
C1061       C  0.76886347  0.06952101  0.39928887    -0.09600
C1062       C  0.79775772  0.07129342  0.35980177     0.06600
C1063       C  0.82267556  0.10418067  0.36194818    -0.03400
C1064       C  0.81990694  0.13176256  0.40494663    -0.07800
C1065       C  0.79216670  0.13403463  0.44888430     0.05700
C1066       C  0.77259625  0.09409300  0.44588272    -0.02900
Br1067     Br  0.78358957  0.04968736  0.48904591    -0.02500
H1068       H  0.74941882  0.04328104  0.39874138     0.09600
H1069       H  0.85007656  0.13763021  0.41060074     0.07600
Br1070     Br  0.86619081  0.10831230  0.31119764    -0.03000
C1071       C  0.83232353  0.07483369  0.08519599    -0.09600
C1072       C  0.81835194  0.08098066  0.13603752     0.06600
C1073       C  0.79836976  0.11701436  0.14631016    -0.03400
C1074       C  0.79152997  0.14531951  0.10523319    -0.07800
C1075       C  0.80435525  0.14118289  0.05213221     0.05700
C1076       C  0.83253651  0.10637098  0.04843841    -0.02900
Br1077     Br  0.89124555  0.10598258  0.04027270    -0.02500
H1078       H  0.84952568  0.04753865  0.07775622     0.09600
H1079       H  0.77851022  0.17333666  0.11400180     0.07600
Br1080     Br  0.78226411  0.12765201  0.21736229    -0.03000
C1081       C  0.71250267  0.35091296  0.39735649    -0.09600
C1082       C  0.69922743  0.35342272  0.45111634     0.06600
C1083       C  0.66510391  0.38374834  0.45161451    -0.03400
C1084       C  0.66311933  0.41629157  0.41609894    -0.07800
C1085       C  0.68202072  0.41423835  0.36785807     0.05700
C1086       C  0.70340266  0.37924179  0.35699810    -0.02900
Br1087     Br  0.71469129  0.36788581  0.28486140    -0.02500
H1088       H  0.72449689  0.32337346  0.38377957     0.09600
H1089       H  0.64281321  0.44151962  0.42299692     0.07600
Br1090     Br  0.61295188  0.38668106  0.48549460    -0.03000
C1091       C  0.69979106  0.39782469  0.04047756    -0.09600
C1092       C  0.70947759  0.35515616  0.04888307     0.06600
C1093       C  0.70985901  0.34976819  0.10623153    -0.03400
C1094       C  0.70328627  0.38147472  0.14404364    -0.07400
C1095       C  0.68985051  0.41957230  0.13163408     0.05700
C1096       C  0.68478663  0.42603280  0.07792964    -0.02900
Br1097     Br  0.65221362  0.46942616  0.05218444    -0.02500
H1098       H  0.70542220  0.41317816  0.00435407     0.09600
H1099       H  0.70517721  0.37540975  0.18520375     0.07600
Br1100     Br  0.70609145  0.30297444  0.14601702    -0.03000
C1101       C  0.67178943  0.08216731  0.42749943    -0.09600
C1102       C  0.67950698  0.09250354  0.37577699     0.06600
C1103       C  0.70123520  0.12769921  0.36754926    -0.03400
C1104       C  0.71706050  0.15037641  0.41014083    -0.07800
C1105       C  0.70810628  0.14382627  0.46461345     0.05700
C1106       C  0.68178673  0.10753406  0.47062880    -0.02900
Br1107     Br  0.64457354  0.09049934  0.02552001    -0.02500
H1108       H  0.65556646  0.05447559  0.43392122     0.09600
H1109       H  0.73737567  0.17387517  0.40061041     0.07600
Br1110     Br  0.70857108  0.14700942  0.29797255    -0.03000
C1111       C  0.72368754  0.11207995  0.06656112    -0.09600
C1112       C  0.71512573  0.15371961  0.06720055     0.06600
C1113       C  0.70325406  0.16447106  0.12186247    -0.03400
C1114       C  0.68435072  0.13648118  0.15590134    -0.07800
C1115       C  0.68817277  0.09567268  0.14668465     0.05700
C1116       C  0.71195987  0.08432467  0.10422724    -0.02900
Br1117     Br  0.72440183  0.02980471  0.09246424    -0.02500
H1118       H  0.74068834  0.10084523  0.03528994     0.09600
H1119       H  0.67239562  0.14613916  0.19386762     0.07600
Br1120     Br  0.72448378  0.20548551  0.16918256    -0.03000
O1121       O  0.71741201  0.04728000  0.70655842    -0.73400
O1122       O  0.71484391  0.46139405  0.81260163    -0.74400
O1123       O  0.71829447  0.46205360  0.70012856    -0.63000
O1124       O  0.71316932  0.04706380  0.81396565    -0.71400
O1125       O  0.64662627  0.04696133  0.81725366    -0.71000
O1126       O  0.65164589  0.46394374  0.69267204    -0.62200
O1127       O  0.64812595  0.45896668  0.80922021    -0.74700
O1128       O  0.65057479  0.05164557  0.70271187    -0.73500
Cu1129     Cu  0.71787460  0.50447723  0.75840107     1.04600
Cu1130     Cu  0.64637685  0.00526973  0.75552139     1.04300
C1131       C  0.68560212  0.06348107  0.68797448     0.92800
C1132       C  0.68195081  0.44547032  0.82715304     0.91900
C1133       C  0.68609932  0.44987165  0.67714486     0.84100
C1134       C  0.68057613  0.06104245  0.83345242     0.90400
C1135       C  0.72599430  0.17852595  0.01125900    -0.02900
C1136       C  0.71656750  0.32179864  0.49978149    -0.02900
O1137       O  0.78910911  0.03136278  0.79817757    -0.73400
O1138       O  0.80003186  0.45573721  0.67619019    -0.74400
O1139       O  0.78726276  0.44655074  0.78287737    -0.63000
O1140       O  0.79836636  0.03848597  0.68728041    -0.71400
O1141       O  0.86510446  0.03797551  0.69114294    -0.71000
O1142       O  0.85292466  0.44297693  0.79811836    -0.62200
O1143       O  0.86673626  0.45142347  0.68631641    -0.74700
O1144       O  0.85532054  0.03209637  0.80740769    -0.73500
Cu1145     Cu  0.79203420  0.49323584  0.73580543     1.04600
Cu1146     Cu  0.86288000  0.49125334  0.74647442     1.04300
C1147       C  0.82038563  0.04491546  0.82203958     0.92800
C1148       C  0.83436951  0.44166745  0.66202277     0.91900
C1149       C  0.81685143  0.42931732  0.80521403     0.84100
C1150       C  0.83192547  0.05234676  0.67178290     0.90400
C1151       C  0.78560553  0.17192803  0.49864427    -0.02900
C1152       C  0.77693579  0.32044610  0.49855376    -0.02900
O1153       O  0.96638112  0.14421758  0.80517146    -0.73400
O1154       O  0.55679930  0.14565523  0.69205046    -0.74400
O1155       O  0.55806884  0.14577577  0.80330417    -0.63000
O1156       O  0.96857854  0.14551646  0.68810697    -0.71400
O1157       O  0.97180843  0.21140481  0.69026447    -0.71000
O1158       O  0.55567372  0.21163894  0.80586535    -0.62200
O1159       O  0.55678237  0.21148207  0.69960938    -0.74700
O1160       O  0.96569953  0.21024072  0.80535957    -0.73500
Cu1161     Cu  0.51215091  0.14269537  0.74751421     1.04600
Cu1162     Cu  0.51194003  0.21302099  0.75070404     1.04300
C1163       C  0.95103600  0.17739242  0.82242391     0.92800
C1164       C  0.57194878  0.17963786  0.68043015     0.91900
C1165       C  0.57318396  0.17933785  0.81894252     0.84100
C1166       C  0.95806409  0.17952723  0.66893632     0.90400
C1167       C  0.68254406  0.22023901  0.49973835    -0.02900
C1168       C  0.82486982  0.21677861  0.49922606    -0.02900
O1169       O  0.94571628  0.34590527  0.69360645    -0.73400
O1170       O  0.53386507  0.35077110  0.80955177    -0.74400
O1171       O  0.53520811  0.34479619  0.69353179    -0.63000
O1172       O  0.94769954  0.35603918  0.80526329    -0.71400
O1173       O  0.95465516  0.29045135  0.81425462    -0.71000
O1174       O  0.52691108  0.27969861  0.68999961    -0.62200
O1175       O  0.53575861  0.28497801  0.80128670    -0.74700
O1176       O  0.94151688  0.28089955  0.70749357    -0.73500
Cu1177     Cu  0.49094347  0.35228626  0.74979598     1.04600
Cu1178     Cu  0.48981941  0.28224623  0.75325012     1.04300
C1179       C  0.92859296  0.31184642  0.68473715     0.92800
C1180       C  0.54655925  0.31649891  0.82546971     0.91900
C1181       C  0.54502299  0.31065707  0.67356801     0.84100
C1182       C  0.93747719  0.32340105  0.82685868     0.90400
C1183       C  0.67421264  0.27979602  0.49699790    -0.02900
C1184       C  0.82085277  0.27830481  0.49800543    -0.02900
C1185       C  0.89997475  0.34582063  0.90761638    -0.09600
C1186       C  0.90397485  0.32083757  0.86409750     0.06600
C1187       C  0.88019967  0.28712517  0.86137669    -0.03400
C1188       C  0.86606695  0.27224507  0.90899063    -0.07800
C1189       C  0.85339371  0.29542224  0.95222710     0.05700
C1190       C  0.87388023  0.33556859  0.94979672    -0.02900
Br1191     Br  0.88210321  0.37705520  0.00263113    -0.02500
H1192       H  0.91851156  0.37252135  0.90932254     0.09600
H1193       H  0.89255461  0.25612993  0.92202048     0.07600
Br1194     Br  0.87702597  0.25700500  0.79525653    -0.03000
C1195       C  0.86138261  0.28642419  0.64600194    -0.09600
C1196       C  0.89948379  0.30547839  0.64102847     0.06600
C1197       C  0.91383089  0.31202090  0.59098379    -0.03400
C1198       C  0.89156319  0.29914682  0.54793106    -0.07800
C1199       C  0.84946822  0.28729325  0.54912036     0.05700
C1200       C  0.83684280  0.27718812  0.60000339    -0.02900
Br1201     Br  0.78220844  0.25862929  0.60068341    -0.02500
H1202       H  0.84969013  0.28157351  0.68524674     0.09600
H1203       H  0.91022519  0.29794125  0.51304307     0.07600
Br1204     Br  0.96490547  0.33803557  0.57806188    -0.03000
C1205       C  0.60412146  0.26604795  0.93695025    -0.09600
C1206       C  0.64214218  0.28653870  0.94157136     0.06600
C1207       C  0.64340098  0.31228405  0.89483965    -0.03400
C1208       C  0.60888008  0.33270445  0.87596216    -0.07800
C1209       C  0.57382111  0.31086662  0.87164220     0.05700
C1210       C  0.57165681  0.27623680  0.90244771    -0.02900
Br1211     Br  0.52141055  0.24779540  0.90783320    -0.02500
H1212       H  0.59807033  0.24225081  0.96222232     0.09600
H1213       H  0.61222084  0.35824512  0.84995444     0.07600
Br1214     Br  0.65947262  0.29778473  0.82268969    -0.03000
C1215       C  0.57820320  0.27244171  0.59787750    -0.09600
C1216       C  0.57687447  0.30635140  0.63102942     0.06600
C1217       C  0.60260945  0.33712971  0.61542501    -0.03400
C1218       C  0.63085153  0.33003568  0.57352099    -0.07800
C1219       C  0.63635797  0.29380157  0.54222556     0.05700
C1220       C  0.59664784  0.27554858  0.54749389    -0.02900
Br1221     Br  0.55100532  0.30473228  0.51588396    -0.02500
H1222       H  0.55822573  0.24792619  0.60524365     0.09600
H1223       H  0.64315790  0.35710489  0.56392907     0.07600
Br1224     Br  0.59570519  0.39108714  0.64152621    -0.03000
C1225       C  0.89108177  0.16617619  0.62606193    -0.09600
C1226       C  0.92871063  0.18343467  0.62337132     0.06600
C1227       C  0.93344421  0.21103625  0.58271771    -0.03400
C1228       C  0.90156168  0.21968599  0.54704865    -0.07800
C1229       C  0.85967763  0.20741783  0.55163020     0.05700
C1230       C  0.85791342  0.18718624  0.60366843    -0.02900
Br1231     Br  0.83387302  0.20323460  0.67159427    -0.02500
H1232       H  0.88641205  0.14554816  0.65847120     0.09600
H1233       H  0.91115313  0.23492218  0.51203828     0.07600
Br1234     Br  0.98365029  0.23520362  0.57037295    -0.03000
C1235       C  0.87633288  0.18164999  0.85353815    -0.09600
C1236       C  0.91790373  0.17883084  0.86460578     0.06600
C1237       C  0.92720523  0.17795967  0.91781504    -0.03400
C1238       C  0.89727989  0.18500298  0.95625084    -0.07800
C1239       C  0.85587829  0.19990545  0.94937434     0.05700
C1240       C  0.84696253  0.19496777  0.89245430    -0.02900
Br1241     Br  0.79895026  0.20805995  0.85804302    -0.02500
H1242       H  0.86704539  0.17688593  0.81273385     0.09600
H1243       H  0.90665663  0.17089352  0.99141213     0.07600
Br1244     Br  0.97791211  0.15653476  0.94093486    -0.03000
C1245       C  0.64228979  0.20766844  0.85033379    -0.09600
C1246       C  0.60863907  0.18169621  0.85605181     0.06600
C1247       C  0.60735359  0.16040444  0.90193077    -0.03400
C1248       C  0.63163640  0.17213803  0.94393907    -0.07800
C1249       C  0.65971259  0.20443010  0.94632202     0.05700
C1250       C  0.66866216  0.21717424  0.89446164    -0.02900
Br1251     Br  0.71741713  0.24634359  0.88776652    -0.02500
H1252       H  0.64866091  0.21897195  0.81170191     0.09600
H1253       H  0.62849677  0.15214343  0.97386203     0.07600
Br1254     Br  0.57304414  0.11435373  0.91077399    -0.03000
C1255       C  0.65616321  0.22415702  0.59723207    -0.09600
C1256       C  0.64941391  0.20813550  0.54703872     0.06600
C1257       C  0.61287058  0.18315358  0.54859027    -0.03400
C1258       C  0.60045767  0.16370641  0.59416401    -0.07800
C1259       C  0.60476975  0.18376789  0.64132171     0.05700
C1260       C  0.63289651  0.21511955  0.64340996    -0.02900
Br1261     Br  0.63912512  0.24447169  0.70843739    -0.02500
H1262       H  0.68221253  0.24143400  0.59791588     0.09600
H1263       H  0.57703615  0.14102978  0.59151383     0.07600
Br1264     Br  0.56168277  0.18855636  0.51115156    -0.03000
C1265       C  0.83937791  0.37492707  0.62257536    -0.09600
C1266       C  0.83462572  0.41496818  0.61571466     0.06600
C1267       C  0.81164800  0.42659981  0.57378577    -0.03400
C1268       C  0.78983226  0.39881466  0.54281357    -0.07800
C1269       C  0.79177391  0.35552411  0.54713183     0.05700
C1270       C  0.81016518  0.34953497  0.59894893    -0.02900
Br1271     Br  0.78341649  0.34250993  0.66492041    -0.02500
H1272       H  0.85580014  0.36692778  0.65837680     0.09600
H1273       H  0.77172760  0.41510139  0.51659070     0.07600
Br1274     Br  0.81754467  0.48064385  0.55619848    -0.03000
C1275       C  0.78375452  0.41282766  0.88814990    -0.09600
C1276       C  0.80640097  0.39878056  0.84619329     0.06600
C1277       C  0.81201134  0.35708528  0.84467912    -0.03400
C1278       C  0.79965457  0.33230870  0.88852256    -0.07800
C1279       C  0.78986022  0.34839440  0.94084377     0.05700
C1280       C  0.78553369  0.39215579  0.93565070    -0.02900
Br1281     Br  0.82552331  0.43516287  0.94904820    -0.02500
H1282       H  0.76814120  0.44185720  0.88524869     0.09600
H1283       H  0.79701780  0.30046301  0.88142666     0.07600
Br1284     Br  0.82553378  0.33514654  0.77816682    -0.03000
C1285       C  0.77735243  0.07936259  0.89118831    -0.09600
C1286       C  0.81490212  0.07520211  0.86678405     0.06600
C1287       C  0.84607264  0.09482612  0.89370770    -0.03400
C1288       C  0.83624704  0.12130783  0.93674187    -0.07800
C1289       C  0.79687574  0.13472272  0.95516938     0.05700
C1290       C  0.77425442  0.09853487  0.94154032    -0.02900
Br1291     Br  0.77596846  0.05046600  0.98101104    -0.02500
H1292       H  0.75608034  0.05619875  0.88204593     0.09600
H1293       H  0.86120029  0.12821463  0.95775943     0.07600
Br1294     Br  0.90205651  0.08142992  0.88154276    -0.03000
C1295       C  0.84890986  0.08362217  0.58338815    -0.09600
C1296       C  0.82932369  0.08544732  0.63166788     0.06600
C1297       C  0.80191530  0.11669743  0.63875365    -0.03400
C1298       C  0.79298228  0.14389047  0.59721326    -0.07800
C1299       C  0.80583251  0.14063753  0.54410681     0.05700
C1300       C  0.83898971  0.10977355  0.54060012    -0.02900
Br1301     Br  0.87398314  0.09027959  0.48415066    -0.02500
H1302       H  0.87111552  0.05976479  0.57859710     0.09600
H1303       H  0.77842586  0.17119542  0.60633649     0.07600
Br1304     Br  0.78111031  0.12483169  0.70873425    -0.03000
C1305       C  0.71546800  0.34881829  0.89592665    -0.09600
C1306       C  0.70039015  0.35158171  0.94863167     0.06600
C1307       C  0.66505402  0.38007886  0.94719493    -0.03400
C1308       C  0.66234379  0.41186658  0.91091173    -0.07800
C1309       C  0.68442830  0.41138661  0.86500339     0.05700
C1310       C  0.70790621  0.37723392  0.85528481    -0.02900
Br1311     Br  0.72616091  0.36682317  0.78484280    -0.02500
H1312       H  0.72979741  0.32186842  0.88399126     0.09600
H1313       H  0.64032602  0.43586063  0.91622902     0.07600
Br1314     Br  0.61438892  0.38218281  0.98414342    -0.03000
C1315       C  0.70438714  0.39778282  0.54330464    -0.09600
C1316       C  0.71006613  0.35469236  0.55137327     0.06600
C1317       C  0.70674587  0.34807515  0.60825711    -0.03400
C1318       C  0.69848934  0.37896983  0.64662605    -0.07400
C1319       C  0.69013979  0.41829616  0.63389326     0.05700
C1320       C  0.68958324  0.42635378  0.58025373    -0.02900
Br1321     Br  0.66085822  0.47200634  0.55356438    -0.02500
H1322       H  0.71135521  0.41227096  0.50697244     0.09600
H1323       H  0.69554254  0.37174959  0.68780860     0.07600
Br1324     Br  0.70200063  0.30045176  0.64525081    -0.03000
C1325       C  0.67537064  0.08177923  0.92805176    -0.09600
C1326       C  0.68411528  0.09213898  0.87653564     0.06600
C1327       C  0.70425032  0.12845017  0.86918689    -0.03400
C1328       C  0.71848536  0.15135620  0.91276778    -0.07800
C1329       C  0.70923310  0.14427892  0.96673487     0.05700
C1330       C  0.68348012  0.10751922  0.97158511    -0.02900
Br1331     Br  0.64414945  0.09131955  0.52652898    -0.02500
H1332       H  0.65974872  0.05367844  0.93390597     0.09600
H1333       H  0.73888557  0.17463334  0.90519533     0.07600
Br1334     Br  0.71403626  0.14769392  0.79998884    -0.03000
C1335       C  0.72436859  0.11031206  0.56398165    -0.09600
C1336       C  0.71523123  0.15203110  0.56478989     0.06600
C1337       C  0.70394985  0.16216646  0.61975903    -0.03400
C1338       C  0.68556484  0.13385396  0.65381480    -0.07800
C1339       C  0.69158613  0.09311584  0.64563634     0.05700
C1340       C  0.71542021  0.08221588  0.60285175    -0.02900
Br1341     Br  0.73613386  0.02890772  0.59624071    -0.02500
H1342       H  0.73997908  0.09938803  0.53166638     0.09600
H1343       H  0.67379683  0.14336454  0.69201501     0.07600
Br1344     Br  0.72638722  0.20248326  0.66707828    -0.03000
O1345       O  0.71295711  0.54929361  0.20694788    -0.73400
O1346       O  0.71106533  0.96349770  0.31332428    -0.74400
O1347       O  0.71561234  0.96367521  0.19994454    -0.63000
O1348       O  0.70877934  0.54827276  0.31419385    -0.71400
O1349       O  0.64229841  0.54761722  0.31653088    -0.71000
O1350       O  0.64942696  0.96478856  0.18972457    -0.62200
O1351       O  0.64450667  0.95947277  0.30838358    -0.74700
O1352       O  0.64632982  0.55311879  0.20186472    -0.73500
Cu1353     Cu  0.71326784  0.00599873  0.25851996     1.04600
Cu1354     Cu  0.64287674  0.50597863  0.25416218     1.04300
C1355       C  0.68137452  0.56582425  0.18856430     0.92800
C1356       C  0.67832259  0.94765065  0.32845929     0.91900
C1357       C  0.68442461  0.95130309  0.17511368     0.84100
C1358       C  0.67613244  0.56180574  0.33323862     0.90400
C1359       C  0.72579444  0.67846818  0.50922652    -0.02900
C1360       C  0.71724806  0.82159196  0.99826865    -0.02900
O1361       O  0.77631827  0.52076132  0.29868230    -0.73400
O1362       O  0.79481684  0.95180126  0.17186526    -0.74400
O1363       O  0.77858110  0.93492601  0.27603742    -0.63000
O1364       O  0.78724374  0.53270419  0.18927326    -0.71400
O1365       O  0.85385645  0.53476693  0.19500949    -0.71000
O1366       O  0.84329548  0.93673071  0.29719716    -0.62200
O1367       O  0.86105751  0.94931042  0.18671315    -0.74700
O1368       O  0.84185760  0.52659839  0.30896045    -0.73500
Cu1369     Cu  0.78245441  0.98480156  0.23398196     1.04600
Cu1370     Cu  0.85260613  0.98653661  0.24831896     1.04300
C1371       C  0.80591435  0.53783568  0.32133742     0.92800
C1372       C  0.83033919  0.94050969  0.15855330     0.91900
C1373       C  0.80833243  0.91975835  0.30051119     0.84100
C1374       C  0.82038953  0.54812086  0.17542697     0.90400
C1375       C  0.78643217  0.67217672  0.00398849    -0.02900
C1376       C  0.77785803  0.82027398  0.99595716    -0.02900
O1377       O  0.96830790  0.64861062  0.30953361    -0.73400
O1378       O  0.55606766  0.64753741  0.19233913    -0.74400
O1379       O  0.55885487  0.64795016  0.30281785    -0.63000
O1380       O  0.96791885  0.64854814  0.19198821    -0.71400
O1381       O  0.97267238  0.71439889  0.19208908    -0.71000
O1382       O  0.55663426  0.71389931  0.30625352    -0.62200
O1383       O  0.55731807  0.71322184  0.20069251    -0.74700
O1384       O  0.96716561  0.71462820  0.30679769    -0.73500
Cu1385     Cu  0.51237247  0.64550945  0.24948476     1.04600
Cu1386     Cu  0.51293249  0.71584809  0.25181590     1.04300
C1387       C  0.95335132  0.68220611  0.32612135     0.92800
C1388       C  0.57191187  0.68134242  0.18119682     0.91900
C1389       C  0.57399441  0.68133793  0.31853541     0.84100
C1390       C  0.95813439  0.68245449  0.17205706     0.90400
C1391       C  0.68298720  0.72079145  0.00113747    -0.02900
C1392       C  0.82576681  0.71609062  0.00117554    -0.02900
O1393       O  0.94674872  0.84791488  0.19435131    -0.73400
O1394       O  0.53417449  0.85318216  0.31250684    -0.74400
O1395       O  0.53582213  0.84493790  0.19558099    -0.63000
O1396       O  0.94875480  0.86196871  0.30721060    -0.71400
O1397       O  0.95500768  0.79675863  0.32017892    -0.71000
O1398       O  0.52610391  0.78019621  0.19320389    -0.62200
O1399       O  0.53522932  0.78736250  0.30525858    -0.74700
O1400       O  0.94084451  0.78358041  0.21135525    -0.73500
Cu1401     Cu  0.49181576  0.85485074  0.25159263     1.04600
Cu1402     Cu  0.48928055  0.78517193  0.25760451     1.04300
C1403       C  0.92925086  0.81390997  0.18601996     0.92800
C1404       C  0.54580006  0.81883477  0.32962816     0.91900
C1405       C  0.54475853  0.81053353  0.17573147     0.84100
C1406       C  0.93872611  0.83057021  0.33178793     0.90400
C1407       C  0.67447212  0.78008022  0.99681069    -0.02900
C1408       C  0.82135232  0.77733848  0.99768571    -0.02900
C1409       C  0.90097686  0.85251672  0.41441396    -0.09600
C1410       C  0.90438656  0.82962586  0.36862714     0.06600
C1411       C  0.87942225  0.79727418  0.36361424    -0.03400
C1412       C  0.86720916  0.77952171  0.41060863    -0.07800
C1413       C  0.85360067  0.80033452  0.45492037     0.05700
C1414       C  0.87405715  0.84077891  0.45561674    -0.02900
Br1415     Br  0.88420917  0.87910336  0.51262808    -0.02500
H1416       H  0.92059993  0.87827674  0.41879711     0.09600
H1417       H  0.89271921  0.76139845  0.42295977     0.07600
Br1418     Br  0.87646763  0.77118634  0.29492045    -0.03000
C1419       C  0.86256196  0.78749818  0.14612281    -0.09600
C1420       C  0.90051479  0.80677912  0.14135426     0.06600
C1421       C  0.91404200  0.81438654  0.09098863    -0.03400
C1422       C  0.89171441  0.80130805  0.04766823    -0.07800
C1423       C  0.85017799  0.78755371  0.04875093     0.05700
C1424       C  0.83801194  0.77771554  0.10019035    -0.02900
Br1425     Br  0.78366453  0.75905770  0.10179270    -0.02500
H1426       H  0.85071227  0.78317962  0.18537773     0.09600
H1427       H  0.91048590  0.80010008  0.01294988     0.07600
Br1428     Br  0.96417251  0.84192411  0.07805335    -0.03000
C1429       C  0.60385820  0.76623511  0.43868478    -0.09600
C1430       C  0.64132780  0.78752538  0.44419017     0.06600
C1431       C  0.64129173  0.81484123  0.39973942    -0.03400
C1432       C  0.60626954  0.83566363  0.38355499    -0.07800
C1433       C  0.57182265  0.81296181  0.37703053     0.05700
C1434       C  0.57084189  0.77679552  0.40513419    -0.02900
Br1435     Br  0.52158710  0.74639480  0.40902604    -0.02500
H1436       H  0.59843378  0.74206479  0.46333282     0.09600
H1437       H  0.60926138  0.86224390  0.35940291     0.07600
Br1438     Br  0.65318731  0.79925675  0.32673331    -0.03000
C1439       C  0.57662744  0.77329403  0.09681568    -0.09600
C1440       C  0.57637744  0.80582132  0.13233000     0.06600
C1441       C  0.60434805  0.83538492  0.11981761    -0.03400
C1442       C  0.63250149  0.82906005  0.07755883    -0.07800
C1443       C  0.63634068  0.79457739  0.04231172     0.05700
C1444       C  0.59602304  0.77712908  0.04682340    -0.02900
Br1445     Br  0.55143517  0.80755457  0.01526309    -0.02500
H1446       H  0.55689655  0.74858377  0.10352926     0.09600
H1447       H  0.64388262  0.85680378  0.06923066     0.07600
Br1448     Br  0.60191702  0.88719313  0.15346217    -0.03000
C1449       C  0.89112401  0.66869353  0.13106913    -0.09600
C1450       C  0.92857266  0.68612783  0.12729870     0.06600
C1451       C  0.93304676  0.71337649  0.08625818    -0.03400
C1452       C  0.90120113  0.72142567  0.05076606    -0.07800
C1453       C  0.86010381  0.70745561  0.05396617     0.05700
C1454       C  0.85784005  0.68780263  0.10645732    -0.02900
Br1455     Br  0.83531274  0.70525705  0.17503419    -0.02500
H1456       H  0.88666520  0.64748917  0.16299128     0.09600
H1457       H  0.91064934  0.73713954  0.01623811     0.07600
Br1458     Br  0.98287569  0.73756874  0.07172672    -0.03000
C1459       C  0.88031091  0.69570792  0.35374656    -0.09600
C1460       C  0.91974244  0.68467935  0.36747036     0.06600
C1461       C  0.92499438  0.67497779  0.42038672    -0.03400
C1462       C  0.89317389  0.68061532  0.45714745    -0.07800
C1463       C  0.85557901  0.70303480  0.44895113     0.05700
C1464       C  0.84940370  0.70583216  0.39158800    -0.02900
Br1465     Br  0.80075099  0.71743119  0.35701748    -0.02500
H1466       H  0.87291943  0.69485846  0.31198926     0.09600
H1467       H  0.89864047  0.66463267  0.49289902     0.07600
Br1468     Br  0.97355468  0.64956379  0.44429190    -0.03000
C1469       C  0.64254687  0.70899541  0.34952444    -0.09600
C1470       C  0.60920294  0.68301526  0.35514021     0.06600
C1471       C  0.60759731  0.66151369  0.40071721    -0.03400
C1472       C  0.63163655  0.67312428  0.44287972    -0.07800
C1473       C  0.65981705  0.70527257  0.44538814     0.05700
C1474       C  0.66851865  0.71852037  0.39370894    -0.02900
Br1475     Br  0.71631664  0.74791647  0.38585717    -0.02500
H1476       H  0.64898871  0.72035123  0.31081453     0.09600
H1477       H  0.62824530  0.65316768  0.47285999     0.07600
Br1478     Br  0.57296753  0.61557652  0.40895190    -0.03000
C1479       C  0.65568558  0.72684522  0.09851935    -0.09600
C1480       C  0.65001703  0.70941695  0.04876380     0.06600
C1481       C  0.61478986  0.68297112  0.05058987    -0.03400
C1482       C  0.60286449  0.66384232  0.09658544    -0.07800
C1483       C  0.60519286  0.68555501  0.14283222     0.05700
C1484       C  0.63219253  0.71805115  0.14436293    -0.02900
Br1485     Br  0.63720394  0.74999915  0.20759128    -0.02500
H1486       H  0.68022027  0.74613326  0.09948759     0.09600
H1487       H  0.58047038  0.64017273  0.09414063     0.07600
Br1488     Br  0.56294237  0.68912846  0.01501696    -0.03000
C1489       C  0.84282943  0.87723882  0.11394181    -0.09600
C1490       C  0.83364468  0.91682961  0.10982661     0.06600
C1491       C  0.80710708  0.92686898  0.07071226    -0.03400
C1492       C  0.78615416  0.89775542  0.04141709    -0.07800
C1493       C  0.79202803  0.85511438  0.04447200     0.05700
C1494       C  0.81342314  0.85036525  0.09426906    -0.02900
Br1495     Br  0.78910915  0.84614135  0.16250376    -0.02500
H1496       H  0.86167432  0.87018025  0.14787870     0.09600
H1497       H  0.76650013  0.91225582  0.01569758     0.07600
Br1498     Br  0.80246747  0.98125588  0.05677492    -0.03000
C1499       C  0.78174897  0.90875929  0.38743631    -0.09600
C1500       C  0.79855926  0.89072143  0.34337160     0.06600
C1501       C  0.80040626  0.84829941  0.34455463    -0.03400
C1502       C  0.79328296  0.82731615  0.39284152    -0.07800
C1503       C  0.78743112  0.84679114  0.44305534     0.05700
C1504       C  0.78601981  0.89014504  0.43587767    -0.02900
Br1505     Br  0.83043317  0.92905260  0.44169434    -0.02500
H1506       H  0.76913369  0.93918760  0.38463600     0.09600
H1507       H  0.78976942  0.79536788  0.39096336     0.07600
Br1508     Br  0.79570675  0.81764185  0.28167437    -0.03000
C1509       C  0.76959348  0.57011553  0.39953938    -0.09600
C1510       C  0.79846947  0.57194381  0.35997075     0.06600
C1511       C  0.82333546  0.60488970  0.36222845    -0.03400
C1512       C  0.82047661  0.63248522  0.40522912    -0.07800
C1513       C  0.79263111  0.63477078  0.44907349     0.05700
C1514       C  0.77321377  0.59477625  0.44610929    -0.02900
Br1515     Br  0.78465805  0.55062258  0.48945577    -0.02500
H1516       H  0.75026850  0.54379496  0.39912069     0.09600
H1517       H  0.85058214  0.63863964  0.41081928     0.07600
Br1518     Br  0.86683674  0.60925248  0.31154064    -0.03000
C1519       C  0.83151742  0.57465564  0.08456182    -0.09600
C1520       C  0.81795017  0.58086944  0.13558550     0.06600
C1521       C  0.79849445  0.61711763  0.14627721    -0.03400
C1522       C  0.79171753  0.64556758  0.10536640    -0.07800
C1523       C  0.80434879  0.64141625  0.05221660     0.05700
C1524       C  0.83220184  0.60642568  0.04824348    -0.02900
Br1525     Br  0.89098901  0.60602263  0.04130463    -0.02500
H1526       H  0.84832798  0.54718548  0.07669225     0.09600
H1527       H  0.77890835  0.67365206  0.11424524     0.07600
Br1528     Br  0.78297903  0.62774963  0.21756100    -0.03000
C1529       C  0.71188700  0.85131469  0.39752011    -0.09600
C1530       C  0.69909208  0.85397515  0.45152244     0.06600
C1531       C  0.66529615  0.88467487  0.45241829    -0.03400
C1532       C  0.66334404  0.91718093  0.41682648    -0.07800
C1533       C  0.68150500  0.91467161  0.36813971     0.05700
C1534       C  0.70240170  0.87948506  0.35709724    -0.02900
Br1535     Br  0.71250190  0.86792281  0.28470711    -0.02500
H1536       H  0.72366701  0.82378145  0.38379707     0.09600
H1537       H  0.64346163  0.94269546  0.42400407     0.07600
Br1538     Br  0.61330083  0.88815479  0.48666795    -0.03000
C1539       C  0.70041874  0.89816542  0.04031913    -0.09600
C1540       C  0.70988192  0.85547687  0.04883826     0.06600
C1541       C  0.71065905  0.85019784  0.10614369    -0.03400
C1542       C  0.70440328  0.88201179  0.14381197    -0.07400
C1543       C  0.69044181  0.91992052  0.13139510     0.05700
C1544       C  0.68537567  0.92639881  0.07769754    -0.02900
Br1545     Br  0.65358255  0.97031494  0.05182503    -0.02500
H1546       H  0.70612738  0.91340774  0.00411661     0.09600
H1547       H  0.70707811  0.87614945  0.18491367     0.07600
Br1548     Br  0.70660913  0.80346626  0.14605713    -0.03000
C1549       C  0.67235952  0.58257441  0.42758309    -0.09600
C1550       C  0.68024330  0.59280325  0.37588314     0.06600
C1551       C  0.70186738  0.62809458  0.36769732    -0.03400
C1552       C  0.71745253  0.65092030  0.41033194    -0.07800
C1553       C  0.70847260  0.64435008  0.46477732     0.05700
C1554       C  0.68215819  0.60803144  0.47068795    -0.02900
Br1555     Br  0.64454187  0.59071515  0.02534875    -0.02500
H1556       H  0.65614724  0.55487421  0.43398975     0.09600
H1557       H  0.73760625  0.67456401  0.40088396     0.07600
Br1558     Br  0.70935971  0.64743276  0.29820578    -0.03000
C1559       C  0.72354754  0.61240988  0.06682448    -0.09600
C1560       C  0.71527472  0.65408172  0.06757471     0.06600
C1561       C  0.70377159  0.66484349  0.12243092    -0.03400
C1562       C  0.68493720  0.63691655  0.15666768    -0.07800
C1563       C  0.68819798  0.59609928  0.14717611     0.05700
C1564       C  0.71152843  0.58467930  0.10436757    -0.02900
Br1565     Br  0.72222055  0.53003251  0.09152263    -0.02500
H1566       H  0.74040512  0.60105454  0.03545496     0.09600
H1567       H  0.67326643  0.64659381  0.19476639     0.07600
Br1568     Br  0.72509855  0.70593698  0.16957765    -0.03000
O1569       O  0.71765428  0.54735654  0.70611226    -0.73400
O1570       O  0.71457116  0.96119784  0.81263285    -0.74400
O1571       O  0.71811126  0.96218233  0.70022743    -0.63000
O1572       O  0.71350898  0.54742116  0.81364082    -0.71400
O1573       O  0.64699091  0.54710656  0.81722293    -0.71000
O1574       O  0.65142767  0.96384421  0.69293782    -0.62200
O1575       O  0.64782356  0.95891085  0.80943911    -0.74700
O1576       O  0.65081768  0.55193378  0.70272903    -0.73500
Cu1577     Cu  0.71760814  0.00435217  0.75864066     1.04600
Cu1578     Cu  0.64667083  0.50541619  0.75538560     1.04300
C1579       C  0.68581838  0.56378019  0.68790334     0.92800
C1580       C  0.68165643  0.94537712  0.82729004     0.91900
C1581       C  0.68592064  0.94999468  0.67726814     0.84100
C1582       C  0.68092585  0.56133779  0.83327480     0.90400
C1583       C  0.72609795  0.67881916  0.01151240    -0.02900
C1584       C  0.71659346  0.82225607  0.50012954    -0.02900
O1585       O  0.78943401  0.53200111  0.79790758    -0.73400
O1586       O  0.80019182  0.95609625  0.67536367    -0.74400
O1587       O  0.78691508  0.94590009  0.78193904    -0.63000
O1588       O  0.79835656  0.53837126  0.68671990    -0.71400
O1589       O  0.86510206  0.53809622  0.69100620    -0.71000
O1590       O  0.85249567  0.94266137  0.79792026    -0.62200
O1591       O  0.86682366  0.95153735  0.68633315    -0.74700
O1592       O  0.85562669  0.53239884  0.80739234    -0.73500
Cu1593     Cu  0.79189426  0.99302477  0.73557415     1.04600
Cu1594     Cu  0.86271123  0.99108995  0.74651214     1.04300
C1595       C  0.82070964  0.54539216  0.82190551     0.92800
C1596       C  0.83463006  0.94208625  0.66148762     0.91900
C1597       C  0.81644923  0.92875176  0.80452531     0.84100
C1598       C  0.83193767  0.55237576  0.67146271     0.90400
C1599       C  0.78594803  0.67260381  0.49888814    -0.02900
C1600       C  0.77693694  0.82101723  0.49870331    -0.02900
O1601       O  0.96637971  0.64449971  0.80535523    -0.73400
O1602       O  0.55694825  0.64602024  0.69248147    -0.74400
O1603       O  0.55801973  0.64606263  0.80376547    -0.63000
O1604       O  0.96870756  0.64596068  0.68832647    -0.71400
O1605       O  0.97190722  0.71185847  0.69064273    -0.71000
O1606       O  0.55565021  0.71193957  0.80636897    -0.62200
O1607       O  0.55694000  0.71184775  0.70003414    -0.74700
O1608       O  0.96569643  0.71053228  0.80571826    -0.73500
Cu1609     Cu  0.51221191  0.64304130  0.74784351     1.04600
Cu1610     Cu  0.51200332  0.71337714  0.75113104     1.04300
C1611       C  0.95102534  0.67764549  0.82267654     0.92800
C1612       C  0.57212588  0.67999191  0.68086773     0.91900
C1613       C  0.57311345  0.67961519  0.81946709     0.84100
C1614       C  0.95817243  0.67999838  0.66924891     0.90400
C1615       C  0.68274094  0.72068026  0.50007081    -0.02900
C1616       C  0.82508995  0.71756129  0.49947937    -0.02900
O1617       O  0.94592000  0.84648572  0.69409616    -0.73400
O1618       O  0.53377743  0.85119899  0.81051496    -0.74400
O1619       O  0.53545983  0.84525165  0.69439319    -0.63000
O1620       O  0.94765966  0.85670329  0.80567543    -0.71400
O1621       O  0.95474086  0.79114516  0.81489399    -0.71000
O1622       O  0.52706838  0.78016607  0.69080071    -0.62200
O1623       O  0.53572747  0.78540651  0.80217107    -0.74700
O1624       O  0.94161466  0.78149940  0.70806973    -0.73500
Cu1625     Cu  0.49105706  0.85283314  0.75048191     1.04600
Cu1626     Cu  0.48989892  0.78279851  0.75397281     1.04300
C1627       C  0.92873842  0.81244744  0.68525172     0.92800
C1628       C  0.54639531  0.81690832  0.82649726     0.91900
C1629       C  0.54522249  0.81111008  0.67438189     0.84100
C1630       C  0.93744879  0.82408095  0.82729888     0.90400
C1631       C  0.67425382  0.78020754  0.49755600    -0.02900
C1632       C  0.82095244  0.77905272  0.49835120    -0.02900
C1633       C  0.89970909  0.84648125  0.90777625    -0.09600
C1634       C  0.90383589  0.82148091  0.86432366     0.06600
C1635       C  0.88036165  0.78756692  0.86170116    -0.03400
C1636       C  0.86644299  0.77258785  0.90936421    -0.07800
C1637       C  0.85357755  0.79577078  0.95249962     0.05700
C1638       C  0.87382976  0.83604289  0.95006709    -0.02900
Br1639     Br  0.88234173  0.87744447  0.00301506    -0.02500
H1640       H  0.91809957  0.87328579  0.90940068     0.09600
H1641       H  0.89281627  0.75628468  0.92236097     0.07600
Br1642     Br  0.87760470  0.75729872  0.79566789    -0.03000
C1643       C  0.86140452  0.78725469  0.64645215    -0.09600
C1644       C  0.89962103  0.80609903  0.64150030     0.06600
C1645       C  0.91401763  0.81251621  0.59144199    -0.03400
C1646       C  0.89166060  0.79981543  0.54834538    -0.07800
C1647       C  0.84955006  0.78805599  0.54952134     0.05700
C1648       C  0.83689296  0.77805361  0.60043251    -0.02900
Br1649     Br  0.78228479  0.75961476  0.60111756    -0.02500
H1650       H  0.84965678  0.78242053  0.68566419     0.09600
H1651       H  0.91028688  0.79859752  0.51342647     0.07600
Br1652     Br  0.96525483  0.83820832  0.57859914    -0.03000
C1653       C  0.60403353  0.76628034  0.93778750    -0.09600
C1654       C  0.64205381  0.78679784  0.94227908     0.06600
C1655       C  0.64312860  0.81257338  0.89561327    -0.03400
C1656       C  0.60855891  0.83311925  0.87717040    -0.07800
C1657       C  0.57352338  0.81125532  0.87279916     0.05700
C1658       C  0.57146409  0.77650640  0.90343148    -0.02900
Br1659     Br  0.52130943  0.74789105  0.90873008    -0.02500
H1660       H  0.59807788  0.74248532  0.96308001     0.09600
H1661       H  0.61185236  0.85869849  0.85122445     0.07600
Br1662     Br  0.65870902  0.79798363  0.82333049    -0.03000
C1663       C  0.57838261  0.77280825  0.59871702    -0.09600
C1664       C  0.57703293  0.80678984  0.63176128     0.06600
C1665       C  0.60261934  0.83762450  0.61587226    -0.03400
C1666       C  0.63081271  0.83049374  0.57388181    -0.07800
C1667       C  0.63645078  0.79414611  0.54288843     0.05700
C1668       C  0.59676736  0.77584676  0.54827955    -0.02900
Br1669     Br  0.55113429  0.80507243  0.51666881    -0.02500
H1670       H  0.55840333  0.74830354  0.60615706     0.09600
H1671       H  0.64328227  0.85747076  0.56421409     0.07600
Br1672     Br  0.59546006  0.89165637  0.64158092    -0.03000
C1673       C  0.89105865  0.66695638  0.62657962    -0.09600
C1674       C  0.92879321  0.68397061  0.62372830     0.06600
C1675       C  0.93362567  0.71152017  0.58305007    -0.03400
C1676       C  0.90174094  0.72038646  0.54748883    -0.07800
C1677       C  0.85983707  0.70818395  0.55196196     0.05700
C1678       C  0.85796652  0.68802745  0.60406763    -0.02900
Br1679     Br  0.83372217  0.70399070  0.67189805    -0.02500
H1680       H  0.88631480  0.64639170  0.65904519     0.09600
H1681       H  0.91140085  0.73567606  0.51255925     0.07600
Br1682     Br  0.98402331  0.73520990  0.57039760    -0.03000
C1683       C  0.87631241  0.68197061  0.85374501    -0.09600
C1684       C  0.91787749  0.67898425  0.86483095     0.06600
C1685       C  0.92715442  0.67782119  0.91804088    -0.03400
C1686       C  0.89725518  0.68494443  0.95647920    -0.07800
C1687       C  0.85594901  0.70011943  0.94957330     0.05700
C1688       C  0.84699995  0.69534358  0.89268200    -0.02900
Br1689     Br  0.79905532  0.70888605  0.85842002    -0.02500
H1690       H  0.86700376  0.67734151  0.81292434     0.09600
H1691       H  0.90652929  0.67079536  0.99170342     0.07600
Br1692     Br  0.97769095  0.65589983  0.94107618    -0.03000
C1693       C  0.64218469  0.70789314  0.85077929    -0.09600
C1694       C  0.60854884  0.68195210  0.85657711     0.06600
C1695       C  0.60729919  0.66068975  0.90247595    -0.03400
C1696       C  0.63162246  0.67245771  0.94443825    -0.07800
C1697       C  0.65972382  0.70472600  0.94673532     0.05700
C1698       C  0.66856002  0.71746397  0.89484776    -0.02900
Br1699     Br  0.71721886  0.74663689  0.88787416    -0.02500
H1700       H  0.64854931  0.71912957  0.81211325     0.09600
H1701       H  0.62852445  0.65250641  0.97437787     0.07600
Br1702     Br  0.57310748  0.61456177  0.91130087    -0.03000
C1703       C  0.65639112  0.72445210  0.59762015    -0.09600
C1704       C  0.64964866  0.70843705  0.54740540     0.06600
C1705       C  0.61322048  0.68328210  0.54902629    -0.03400
C1706       C  0.60081419  0.66390209  0.59468065    -0.07800
C1707       C  0.60501430  0.68406672  0.64178125     0.05700
C1708       C  0.63315363  0.71539423  0.64383077    -0.02900
Br1709     Br  0.63943044  0.74465047  0.70890891    -0.02500
H1710       H  0.68239874  0.74179359  0.59827272     0.09600
H1711       H  0.57747834  0.64113439  0.59210278     0.07600
Br1712     Br  0.56199457  0.68837905  0.51162655    -0.03000
C1713       C  0.83946578  0.87544643  0.62236767    -0.09600
C1714       C  0.83528015  0.91549519  0.61519650     0.06600
C1715       C  0.81291840  0.92733837  0.57285393    -0.03400
C1716       C  0.79071773  0.89975387  0.54199343    -0.07800
C1717       C  0.79192289  0.85639608  0.54683414     0.05700
C1718       C  0.80999699  0.85037256  0.59879003    -0.02900
Br1719     Br  0.78307119  0.84414682  0.66472166    -0.02500
H1720       H  0.85569422  0.86740852  0.65831723     0.09600
H1721       H  0.77285457  0.91631324  0.51568971     0.07600
Br1722     Br  0.82121644  0.98093057  0.55410380    -0.03000
C1723       C  0.78358484  0.91251838  0.88768242    -0.09600
C1724       C  0.80590540  0.89824351  0.84554065     0.06600
C1725       C  0.81148152  0.85651685  0.84432811    -0.03400
C1726       C  0.79946629  0.83195698  0.88853151    -0.07800
C1727       C  0.78983388  0.84829290  0.94073169     0.05700
C1728       C  0.78558244  0.89200873  0.93530155    -0.02900
Br1729     Br  0.82599959  0.93475688  0.94768498    -0.02500
H1730       H  0.76804798  0.94158989  0.88478518     0.09600
H1731       H  0.79689973  0.80006812  0.88179460     0.07600
Br1732     Br  0.82434190  0.83405139  0.77795298    -0.03000
C1733       C  0.77758173  0.57968063  0.89110413    -0.09600
C1734       C  0.81516422  0.57562896  0.86672981     0.06600
C1735       C  0.84627665  0.59518646  0.89383326    -0.03400
C1736       C  0.83636472  0.62156081  0.93695792    -0.07800
C1737       C  0.79695219  0.63501730  0.95523330     0.05700
C1738       C  0.77436818  0.59879579  0.94149529    -0.02900
Br1739     Br  0.77573881  0.55067520  0.98105132    -0.02500
H1740       H  0.75637116  0.55647785  0.88187103     0.09600
H1741       H  0.86124279  0.62816862  0.95840155     0.07600
Br1742     Br  0.90224521  0.58166716  0.88185616    -0.03000
C1743       C  0.84927515  0.58414333  0.58343856    -0.09600
C1744       C  0.82943452  0.58564840  0.63155564     0.06600
C1745       C  0.80212489  0.61696075  0.63880961    -0.03400
C1746       C  0.79327856  0.64430462  0.59740474    -0.07800
C1747       C  0.80622412  0.64127090  0.54432744     0.05700
C1748       C  0.83957516  0.61060405  0.54087202    -0.02900
Br1749     Br  0.87489083  0.59154254  0.48454758    -0.02500
H1750       H  0.87147071  0.56028418  0.57854445     0.09600
H1751       H  0.77875110  0.67160048  0.60662379     0.07600
Br1752     Br  0.78141861  0.62498427  0.70885332    -0.03000
C1753       C  0.71531403  0.84886657  0.89599728    -0.09600
C1754       C  0.70046429  0.85171997  0.94881377     0.06600
C1755       C  0.66517149  0.88028327  0.94762894    -0.03400
C1756       C  0.66230682  0.91198415  0.91125339    -0.07800
C1757       C  0.68414666  0.91135264  0.86515282     0.05700
C1758       C  0.70754202  0.87718194  0.85533003    -0.02900
Br1759     Br  0.72539616  0.86662825  0.78473136    -0.02500
H1760       H  0.72961009  0.82194928  0.88397770     0.09600
H1761       H  0.64037638  0.93603962  0.91670375     0.07600
Br1762     Br  0.61485621  0.88266351  0.98536163    -0.03000
C1763       C  0.70532847  0.89812598  0.54370396    -0.09600
C1764       C  0.71027140  0.85500714  0.55179606     0.06600
C1765       C  0.70645327  0.84831842  0.60860848    -0.03400
C1766       C  0.69771373  0.87915569  0.64682312    -0.07400
C1767       C  0.69000929  0.91855229  0.63399752     0.05700
C1768       C  0.69050031  0.92682903  0.58043131    -0.02900
Br1769     Br  0.66305891  0.97309899  0.55333449    -0.02500
H1770       H  0.71253567  0.91238152  0.50730941     0.09600
H1771       H  0.69413703  0.87193004  0.68793645     0.07600
Br1772     Br  0.70207392  0.80076761  0.64581197    -0.03000
C1773       C  0.67553417  0.58211559  0.92793696    -0.09600
C1774       C  0.68442919  0.59246192  0.87644411     0.06600
C1775       C  0.70450981  0.62884354  0.86925437    -0.03400
C1776       C  0.71861892  0.65174750  0.91293672    -0.07800
C1777       C  0.70933219  0.64459622  0.96688362     0.05700
C1778       C  0.68354816  0.60783281  0.97156051    -0.02900
Br1779     Br  0.64434626  0.59176205  0.52637799    -0.02500
H1780       H  0.65989169  0.55401606  0.93370307     0.09600
H1781       H  0.73903240  0.67504709  0.90544977     0.07600
Br1782     Br  0.71441960  0.64824506  0.80017479    -0.03000
C1783       C  0.72453739  0.61083380  0.56406505    -0.09600
C1784       C  0.71557611  0.65258079  0.56504110     0.06600
C1785       C  0.70446291  0.66267526  0.62011712    -0.03400
C1786       C  0.68614789  0.63436561  0.65426532    -0.07800
C1787       C  0.69173320  0.59361176  0.64574915     0.05700
C1788       C  0.71517658  0.58268708  0.60267311    -0.02900
Br1789     Br  0.73382539  0.52890451  0.59452437    -0.02500
H1790       H  0.73997896  0.59982314  0.53175996     0.09600
H1791       H  0.67459633  0.64383216  0.69258802     0.07600
Br1792     Br  0.72682889  0.70306155  0.66736056    -0.03000
loop_ 
_geom_bond_atom_site_label_1 
_geom_bond_atom_site_label_2 
_geom_bond_distance 
_geom_bond_site_symmetry_2 
_ccdc_geom_bond_type 
O1           C11   1.266       .  A
O1         Cu457   1.954       .  S
O2           C12   1.268       .  A
O2           Cu9   1.996       .  S
O3           C13   1.274       .  A
O3           Cu9   2.038       .  S
O4           C14   1.260       .  A
O4         Cu457   1.984       .  S
O5           C14   1.284       .  A
O5          Cu10   2.088       .  S
O6           C13   1.291       .  A
O6         Cu458   2.120       .  S
O7           C12   1.287       .  A
O7         Cu458   2.088       .  S
O8           C11   1.281       .  A
O8          Cu10   2.068       .  S
Cu9         O449   1.957       .  S
Cu9         O452   1.989       .  S
Cu9        Cu458   2.337       .  S
Cu10        O454   2.119   1_545  S
Cu10        O455   2.088   1_545  S
Cu10       Cu457   2.336       .  S
C11         C219   1.479       .  S
C12         C189   1.501       .  S
C13         C199   1.527       .  S
C14         C206   1.490       .  S
C15         C209   1.690       .  S
C15         C440   1.697       .  S
C15         C255   2.011       .  S
C15         C271   2.010       .  S
C16         C196   1.715   1_556  S
C16         C410   1.702       .  S
C16          C32   2.003       .  S
C16          C63   1.985       .  S
O17          C27   1.266       .  A
O17        Cu473   2.014   1_545  S
O18          C28   1.274       .  A
O18         Cu25   1.948       .  S
O19          C29   1.265       .  A
O19         Cu25   1.985       .  S
O20          C30   1.264       .  A
O20        Cu473   1.977   1_545  S
O21          C30   1.289       .  A
O21        Cu474   2.096   1_545  S
O22          C29   1.292       .  A
O22         Cu26   2.105       .  S
O23          C28   1.272       .  A
O23         Cu26   2.004       .  S
O24          C27   1.280       .  A
O24        Cu474   2.045   1_545  S
Cu25        O465   2.015       .  S
Cu25        O468   1.978       .  S
Cu25        Cu26   2.346       .  S
Cu26        O469   2.093       .  S
Cu26        O472   2.049       .  S
C27         C166   1.508       .  S
C28         C146   1.460       .  S
C29         C156   1.497       .  S
C30         C176   1.497       .  S
C31         C179   1.705       .  S
C31         C393   1.770   1_554  S
C31          C48   1.966       .  S
C31         C239   2.013       .  S
C32         C149   1.743   1_556  S
C32         C383   1.737       .  S
C32          C64   2.024       .  S
O33          C43   1.289       .  A
O33        Cu937   2.106       .  S
O34          C44   1.281       .  A
O34         Cu41   2.045       .  S
O35          C45   1.283       .  A
O35         Cu41   2.042       .  S
O36          C46   1.283       .  A
O36        Cu937   2.066       .  S
O37          C46   1.271       .  A
O37        Cu938   2.007       .  S
O38          C45   1.267       .  A
O38         Cu42   1.990       .  S
O39          C44   1.261       .  A
O39         Cu42   1.957       .  S
O40          C43   1.280       .  A
O40        Cu938   2.056       .  S
Cu41        O929   2.106   1_455  S
Cu41        O932   2.066   1_455  S
Cu41        Cu42   2.349       .  S
Cu42        O933   2.007   1_455  S
Cu42        O936   2.056   1_455  S
C43         C116   1.527       .  S
C44         C139   1.476       .  S
C45         C126   1.484       .  S
C46         C106   1.497       .  S
C47         C136   1.674       .  S
C47         C353   1.657   1_554  S
C47          C63   2.003   1_554  S
C47         C239   2.010       .  S
C48         C109   1.774       .  S
C48         C343   1.721   1_554  S
C48          C64   2.052   1_554  S
O49          C59   1.292       .  A
O49        Cu953   2.083       .  S
O50          C60   1.286       .  A
O50         Cu57   2.076   1_455  S
O51          C61   1.281       .  A
O51         Cu57   2.052   1_455  S
O52          C62   1.270       .  A
O52        Cu953   2.012       .  S
O53          C62   1.278       .  A
O53        Cu954   1.978       .  S
O54          C61   1.272       .  A
O54         Cu58   2.035   1_455  S
O55          C60   1.262       .  A
O55         Cu58   1.935   1_455  S
O56          C59   1.261       .  A
O56        Cu954   1.980       .  S
Cu57        O945   2.083       .  S
Cu57        O948   2.013       .  S
Cu57        Cu58   2.335       .  S
Cu58        O949   1.978       .  S
Cu58        O952   1.980       .  S
C59          C76   1.489       .  S
C60          C89   1.485       .  S
C61          C96   1.520       .  S
C62          C66   1.469       .  S
C63          C99   1.767   1_556  S
C63         C310   1.757       .  S
C64          C79   1.633   1_556  S
C64         C293   1.687       .  S
C65          C66   1.383       .  A
C65          C70   1.429       .  A
C65          H72   1.084       .  S
C66          C67   1.368       .  A
C67          C68   1.394       .  A
C67         Br74   1.936       .  S
C68          C69   1.385       .  A
C68          H73   1.081       .  S
C69         C288   1.703       .  S
C69          C70   1.513       .  A
C70         Br71   1.943       .  S
C75          C76   1.418       .  A
C75          C80   1.449       .  A
C75          H82   1.078       .  S
C76          C77   1.375       .  A
C77          C78   1.384       .  A
C77         Br84   1.929       .  S
C78          C79   1.448       .  A
C78          H83   1.075       .  S
C79          C80   1.404       .  A
C80         Br81   1.904       .  S
C85          C86   1.436       .  A
C85          C90   1.423       .  A
C85          H92   1.042       .  S
C86         C287   1.749       .  S
C86          C87   1.457       .  A
C87          C88   1.408       .  A
C87         Br94   1.950       .  S
C88          C89   1.378       .  A
C88          H93   1.088       .  S
C89          C90   1.407       .  A
C90         Br91   1.927       .  S
C95          C96   1.400       .  A
C95         C100   1.423       .  A
C95         H102   1.069       .  S
C96          C97   1.395       .  A
C97          C98   1.429       .  A
C97        Br104   1.920       .  S
C98          C99   1.452       .  A
C98         H103   1.025       .  S
C99         C100   1.461       .  A
C100       Br101   1.957       .  S
C105        C106   1.374       .  A
C105        C110   1.413       .  A
C105        H112   1.089       .  S
C106        C107   1.396       .  A
C107        C108   1.407       .  A
C107       Br114   1.876       .  S
C108        C109   1.440       .  A
C108        H113   1.070       .  S
C109        C110   1.488       .  A
C110       Br111   1.966       .  S
C115        C116   1.395       .  A
C115        C120   1.435       .  A
C115        H122   1.082       .  S
C116        C117   1.389       .  A
C117        C118   1.414       .  A
C117       Br124   1.908       .  S
C118        C119   1.461       .  A
C118        H123   1.069       .  S
C119        C272   1.690       .  S
C119        C120   1.465       .  A
C120       Br121   1.867       .  S
C125        C126   1.415       .  A
C125        C130   1.440       .  A
C125        H132   1.075       .  S
C126        C127   1.364       .  A
C127        C128   1.379       .  A
C127       Br134   1.932       .  S
C128        C129   1.426       .  A
C128        H133   1.022       .  S
C129        C271   1.650       .  S
C129        C130   1.413       .  A
C130       Br131   1.879       .  S
C135        C136   1.391       .  A
C135        C140   1.430       .  A
C135        H142   1.037       .  S
C136        C137   1.466       .  A
C137        C138   1.391       .  A
C137       Br144   1.941       .  S
C138        C139   1.370       .  A
C138        H143   1.087       .  S
C139        C140   1.409       .  A
C140       Br141   1.917       .  S
C145        C146   1.361       .  A
C145        C150   1.412       .  A
C145        H152   1.085       .  S
C146        C147   1.364       .  A
C147        C148   1.400       .  A
C147       Br154   1.859       .  S
C148        C149   1.437       .  A
C148        H153   1.038       .  S
C149        C150   1.449       .  A
C150       Br151   1.907       .  S
C155        C156   1.375       .  A
C155        C160   1.386       .  A
C155        H162   1.099       .  S
C156        C157   1.415       .  A
C157        C158   1.434       .  A
C157       Br164   1.882       .  S
C158        C159   1.433       .  A
C158        H163   1.075       .  S
C159        C256   1.697       .  S
C159        C160   1.463       .  A
C160       Br161   1.971       .  S
C165        C166   1.384       .  A
C165        C170   1.432       .  A
C165        H172   1.089       .  S
C166        C167   1.377       .  A
C167        C168   1.418       .  A
C167       Br174   1.934       .  S
C168        C169   1.441       .  A
C168        H173   1.026       .  S
C169        C255   1.785       .  S
C169        C170   1.486       .  A
C170       Br171   1.883       .  S
C175        C176   1.378       .  A
C175        C180   1.411       .  A
C175        H182   1.085       .  S
C176        C177   1.390       .  A
C177        C178   1.428       .  A
C177       Br184   1.901       .  S
C178        C179   1.412       .  A
C178        H183   1.048       .  S
C179        C180   1.486       .  A
C180       Br181   1.950       .  S
C185        C186   1.429       .  A
C185        C190   1.428       .  A
C185        H192   1.053       .  S
C186        C240   1.724       .  S
C186        C187   1.510       .  A
C187        C188   1.418       .  A
C187       Br194   1.926       .  S
C188        C189   1.371       .  A
C188        H193   1.086       .  S
C189        C190   1.386       .  A
C190       Br191   1.893       .  S
C195        C196   1.475       .  A
C195        C200   1.415       .  A
C195        H202   1.068       .  S
C196        C197   1.461       .  A
C197        C198   1.433       .  A
C197       Br204   1.871       .  S
C198        C199   1.383       .  A
C198        H203   1.063       .  S
C199        C200   1.385       .  A
C200       Br201   1.917       .  S
C205        C206   1.379       .  A
C205        C210   1.412       .  A
C205        H212   1.085       .  S
C206        C207   1.398       .  A
C207        C208   1.409       .  A
C207       Br214   1.895       .  S
C208        C209   1.427       .  A
C208        H213   1.065       .  S
C209        C210   1.505       .  A
C210       Br435   1.965       .  S
Br211       C434   1.965   1_554  S
C215        C216   1.417       .  A
C215        C220   1.393       .  A
C215        H222   1.035       .  S
C216        C239   1.686       .  S
C216        C217   1.475       .  A
C217        C218   1.425       .  A
C217       Br224   1.940       .  S
C218        C219   1.384       .  A
C218        H223   1.082       .  S
C219        C220   1.378       .  A
C220       Br221   1.884       .  S
O225        C235   1.270       .  A
O225       Cu681   1.956       .  S
O226        C236   1.269       .  A
O226       Cu233   2.000       .  S
O227        C237   1.276       .  A
O227       Cu233   2.030       .  S
O228        C238   1.268       .  A
O228       Cu681   1.989       .  S
O229        C238   1.282       .  A
O229       Cu234   2.077       .  S
O230        C237   1.288       .  A
O230       Cu682   2.097       .  S
O231        C236   1.285       .  A
O231       Cu682   2.074       .  S
O232        C235   1.282       .  A
O232       Cu234   2.060       .  S
Cu233       O673   1.958       .  S
Cu233       O676   1.993       .  S
Cu233      Cu682   2.352       .  S
Cu234       O678   2.094   1_545  S
Cu234       O679   2.073   1_545  S
Cu234      Cu681   2.353       .  S
C235        C443   1.479       .  S
C236        C413   1.496       .  S
C237        C423   1.514       .  S
C238        C430   1.500       .  S
C239        C433   1.689   1_554  S
C240        C420   1.707       .  S
C240        C256   1.993       .  S
C240        C287   1.987       .  S
O241        C251   1.277       .  A
O241       Cu697   2.024   1_545  S
O242        C252   1.275       .  A
O242       Cu249   1.964       .  S
O243        C253   1.265       .  A
O243       Cu249   1.978       .  S
O244        C254   1.268       .  A
O244       Cu697   1.971   1_545  S
O245        C254   1.290       .  A
O245       Cu698   2.113   1_545  S
O246        C253   1.292       .  A
O246       Cu250   2.113       .  S
O247        C252   1.273       .  A
O247       Cu250   2.011       .  S
O248        C251   1.281       .  A
O248       Cu698   2.061   1_545  S
Cu249       O689   2.023       .  S
Cu249       O692   1.974       .  S
Cu249      Cu250   2.354       .  S
Cu250       O693   2.113       .  S
Cu250       O696   2.064       .  S
C251        C390   1.518       .  S
C252        C370   1.462       .  S
C253        C380   1.503       .  S
C254        C400   1.509       .  S
C255        C403   1.694       .  S
C255        C272   1.987       .  S
C256        C373   1.757       .  S
C256        C288   2.014       .  S
O257        C267   1.287       .  A
O257      Cu1161   2.100       .  S
O258        C268   1.280       .  A
O258       Cu265   2.039       .  S
O259        C269   1.287       .  A
O259       Cu265   2.069       .  S
O260        C270   1.285       .  A
O260      Cu1161   2.078       .  S
O261        C270   1.273       .  A
O261      Cu1162   2.019       .  S
O262        C269   1.267       .  A
O262       Cu266   2.004       .  S
O263        C268   1.264       .  A
O263       Cu266   1.966       .  S
O264        C267   1.281       .  A
O264      Cu1162   2.064       .  S
Cu265      O1153   2.100   1_455  S
Cu265      O1156   2.078   1_455  S
Cu265      Cu266   2.348       .  S
Cu266      O1157   2.019   1_455  S
Cu266      O1160   2.065   1_455  S
C267        C340   1.528       .  S
C268        C363   1.476       .  S
C269        C350   1.499       .  S
C270        C330   1.509       .  S
C271        C360   1.676       .  S
C271        C287   2.007       .  S
C272        C333   1.779       .  S
C272        C288   2.058       .  S
O273        C283   1.290       .  A
O273      Cu1177   2.069       .  S
O274        C284   1.284       .  A
O274       Cu281   2.068   1_455  S
O275        C285   1.281       .  A
O275       Cu281   2.052   1_455  S
O276        C286   1.272       .  A
O276      Cu1177   2.006       .  S
O277        C286   1.272       .  A
O277      Cu1178   1.947       .  S
O278        C285   1.272       .  A
O278       Cu282   2.015   1_455  S
O279        C284   1.263       .  A
O279       Cu282   1.941   1_455  S
O280        C283   1.259       .  A
O280      Cu1178   1.968       .  S
Cu281      O1169   2.069       .  S
Cu281      O1172   2.006       .  S
Cu281      Cu282   2.341       .  S
Cu282      O1173   1.947       .  S
Cu282      O1176   1.968       .  S
C283        C300   1.476       .  S
C284        C313   1.484       .  S
C285        C320   1.510       .  S
C286        C290   1.457       .  S
C287        C323   1.752       .  S
C288        C303   1.624       .  S
C289        C290   1.378       .  A
C289        C294   1.418       .  A
C289        H296   1.085       .  S
C290        C291   1.377       .  A
C291        C292   1.389       .  A
C291       Br298   1.942       .  S
C292        C293   1.394       .  A
C292        H297   1.077       .  S
C293        C294   1.507       .  A
C294       Br295   1.932   1_556  S
C299        C300   1.420       .  A
C299        C304   1.446       .  A
C299        H306   1.078       .  S
C300        C301   1.371       .  A
C301        C302   1.377       .  A
C301       Br308   1.932       .  S
C302        C303   1.448       .  A
C302        H307   1.076       .  S
C303        C304   1.397       .  A
C304       Br305   1.911       .  S
C309        C310   1.437       .  A
C309        C314   1.421       .  A
C309        H316   1.045       .  S
C310        C311   1.468       .  A
C311        C312   1.409       .  A
C311       Br318   1.953       .  S
C312        C313   1.375       .  A
C312        H317   1.088       .  S
C313        C314   1.403       .  A
C314       Br315   1.922       .  S
C319        C320   1.401       .  A
C319        C324   1.417       .  A
C319        H326   1.073       .  S
C320        C321   1.398       .  A
C321        C322   1.428       .  A
C321       Br328   1.923       .  S
C322        C323   1.448       .  A
C322        H327   1.025       .  S
C323        C324   1.456       .  A
C324       Br325   1.962       .  S
C329        C330   1.375       .  A
C329        C334   1.417       .  A
C329        H336   1.087       .  S
C330        C331   1.397       .  A
C331        C332   1.414       .  A
C331       Br338   1.877       .  S
C332        C333   1.450       .  A
C332        H337   1.074       .  S
C333        C334   1.485       .  A
C334       Br335   1.959       .  S
C339        C340   1.403       .  A
C339        C344   1.446       .  A
C339        H346   1.084       .  S
C340        C341   1.378       .  A
C341        C342   1.403       .  A
C341       Br348   1.909       .  S
C342        C343   1.462       .  A
C342        H347   1.055       .  S
C343        C344   1.474       .  A
C344       Br345   1.858       .  S
C349        C350   1.422       .  A
C349        C354   1.446       .  A
C349        H356   1.072       .  S
C350        C351   1.367       .  A
C351        C352   1.382       .  A
C351       Br358   1.931       .  S
C352        C353   1.427       .  A
C352        H357   1.020       .  S
C353        C354   1.414       .  A
C354       Br355   1.896       .  S
C359        C360   1.388       .  A
C359        C364   1.434       .  A
C359        H366   1.039       .  S
C360        C361   1.472       .  A
C361        C362   1.391       .  A
C361       Br368   1.943       .  S
C362        C363   1.367       .  A
C362        H367   1.087       .  S
C363        C364   1.404       .  A
C364       Br365   1.913       .  S
C369        C370   1.358       .  A
C369        C374   1.414       .  A
C369        H376   1.088       .  S
C370        C371   1.360       .  A
C371        C372   1.407       .  A
C371       Br378   1.874       .  S
C372        C373   1.452       .  A
C372        H377   1.046       .  S
C373        C374   1.456       .  A
C374       Br375   1.904       .  S
C379        C380   1.374       .  A
C379        C384   1.391       .  A
C379        H386   1.098       .  S
C380        C381   1.403       .  A
C381        C382   1.450       .  A
C381       Br388   1.878       .  S
C382        C383   1.456       .  A
C382        H387   1.080       .  S
C383        C384   1.474       .  A
C384       Br385   1.982       .  S
C389        C390   1.391       .  A
C389        C394   1.420       .  A
C389        H396   1.071       .  S
C390        C391   1.395       .  A
C391        C392   1.429       .  A
C391       Br398   1.923       .  S
C392        C393   1.448       .  A
C392        H397   1.005       .  S
C393        C394   1.462       .  A
C394       Br395   1.899       .  S
C399        C400   1.382       .  A
C399        C404   1.433       .  A
C399        H406   1.085       .  S
C400        C401   1.387       .  A
C401        C402   1.424       .  A
C401       Br408   1.913       .  S
C402        C403   1.410       .  A
C402        H407   1.051       .  S
C403        C404   1.501       .  A
C404       Br405   1.941       .  S
C409        C410   1.424       .  A
C409        C414   1.426       .  A
C409        H416   1.055       .  S
C410        C411   1.501       .  A
C411        C412   1.412       .  A
C411       Br418   1.918       .  S
C412        C413   1.371       .  A
C412        H417   1.086       .  S
C413        C414   1.394       .  A
C414       Br415   1.906       .  S
C419        C420   1.466       .  A
C419        C424   1.412       .  A
C419        H426   1.068       .  S
C420        C421   1.460       .  A
C421        C422   1.432       .  A
C421       Br428   1.861       .  S
C422        C423   1.381       .  A
C422        H427   1.075       .  S
C423        C424   1.384       .  A
C424       Br425   1.918       .  S
C429        C430   1.381       .  A
C429        C434   1.413       .  A
C429        H436   1.085       .  S
C430        C431   1.401       .  A
C431        C432   1.414       .  A
C431       Br438   1.897       .  S
C432        C433   1.420       .  A
C432        H437   1.051       .  S
C433        C434   1.504       .  A
C439        C440   1.423       .  A
C439        C444   1.399       .  A
C439        H446   1.028       .  S
C440        C441   1.473       .  A
C441        C442   1.425       .  A
C441       Br448   1.939       .  S
C442        C443   1.386       .  A
C442        H447   1.084       .  S
C443        C444   1.382       .  A
C444       Br445   1.908       .  S
O449        C459   1.266       .  A
O450        C460   1.268       .  A
O450       Cu457   1.995   1_565  S
O451        C461   1.273       .  A
O451       Cu457   2.035   1_565  S
O452        C462   1.260       .  A
O453        C462   1.285       .  A
O453       Cu458   2.088       .  S
O454        C461   1.290       .  A
O455        C460   1.287       .  A
O456        C459   1.282       .  A
O456       Cu458   2.070       .  S
C459        C667   1.481       .  S
C460        C637   1.500       .  S
C461        C647   1.526       .  S
C462        C654   1.491       .  S
C463        C657   1.691       .  S
C463        C888   1.697       .  S
C463        C703   2.012       .  S
C463        C719   2.010       .  S
C464        C858   1.702       .  S
C464        C644   1.713   1_556  S
C464        C480   2.002       .  S
C464        C511   1.985       .  S
O465        C475   1.266       .  A
O466        C476   1.274       .  A
O466       Cu473   1.949       .  S
O467        C477   1.265       .  A
O467       Cu473   1.990       .  S
O468        C478   1.264       .  A
O469        C478   1.288       .  A
O470        C477   1.292       .  A
O470       Cu474   2.106       .  S
O471        C476   1.271       .  A
O471       Cu474   1.998       .  S
O472        C475   1.281       .  A
Cu473      Cu474   2.344       .  S
C475        C614   1.510       .  S
C476        C594   1.458       .  S
C477        C604   1.498       .  S
C478        C624   1.496       .  S
C479        C841   1.771   1_554  S
C479        C627   1.704       .  S
C479        C687   2.012       .  S
C479        C496   1.967       .  S
C480        C597   1.744   1_556  S
C480        C831   1.736       .  S
C480        C512   2.023       .  S
O481        C491   1.288       .  A
O481      Cu1385   2.104       .  S
O482        C492   1.281       .  A
O482       Cu489   2.044       .  S
O483        C493   1.283       .  A
O483       Cu489   2.041       .  S
O484        C494   1.283       .  A
O484      Cu1385   2.064       .  S
O485        C494   1.271       .  A
O485      Cu1386   2.009       .  S
O486        C493   1.267       .  A
O486       Cu490   1.992       .  S
O487        C492   1.261       .  A
O487       Cu490   1.956       .  S
O488        C491   1.279       .  A
O488      Cu1386   2.055       .  S
Cu489      O1377   2.104   1_455  S
Cu489      O1380   2.064   1_455  S
Cu489      Cu490   2.348       .  S
Cu490      O1381   2.009   1_455  S
Cu490      O1384   2.056   1_455  S
C491        C564   1.526       .  S
C492        C587   1.475       .  S
C493        C574   1.484       .  S
C494        C554   1.497       .  S
C495        C801   1.658   1_554  S
C495        C584   1.672       .  S
C495        C687   2.010       .  S
C495        C511   2.002   1_554  S
C496        C557   1.772       .  S
C496        C791   1.720   1_554  S
C496        C512   2.052   1_554  S
O497        C507   1.292       .  A
O497      Cu1401   2.084       .  S
O498        C508   1.286       .  A
O498       Cu505   2.077   1_455  S
O499        C509   1.281       .  A
O499       Cu505   2.053   1_455  S
O500        C510   1.270       .  A
O500      Cu1401   2.012       .  S
O501        C510   1.278       .  A
O501      Cu1402   1.978       .  S
O502        C509   1.272       .  A
O502       Cu506   2.037   1_455  S
O503        C508   1.262       .  A
O503       Cu506   1.935   1_455  S
O504        C507   1.261       .  A
O504      Cu1402   1.978       .  S
Cu505      O1393   2.085       .  S
Cu505      O1396   2.012       .  S
Cu505      Cu506   2.335       .  S
Cu506      O1397   1.978       .  S
Cu506      O1400   1.978       .  S
C507        C524   1.490       .  S
C508        C537   1.486       .  S
C509        C544   1.521       .  S
C510        C514   1.469       .  S
C511        C758   1.757       .  S
C511        C547   1.768   1_556  S
C512        C741   1.686       .  S
C512        C527   1.635   1_556  S
C513        C514   1.383       .  A
C513        C518   1.429       .  A
C513        H520   1.085       .  S
C514        C515   1.367       .  A
C515        C516   1.394       .  A
C515       Br522   1.934       .  S
C516        C517   1.384       .  A
C516        H521   1.081       .  S
C517        C736   1.703       .  S
C517        C518   1.513       .  A
C518       Br519   1.945       .  S
C523        C524   1.418       .  A
C523        C528   1.449       .  A
C523        H530   1.078       .  S
C524        C525   1.376       .  A
C525        C526   1.385       .  A
C525       Br532   1.929       .  S
C526        C527   1.449       .  A
C526        H531   1.075       .  S
C527        C528   1.403       .  A
C528       Br529   1.904       .  S
C533        C534   1.436       .  A
C533        C538   1.424       .  A
C533        H540   1.041       .  S
C534        C735   1.747       .  S
C534        C535   1.454       .  A
C535        C536   1.407       .  A
C535       Br542   1.949       .  S
C536        C537   1.379       .  A
C536        H541   1.088       .  S
C537        C538   1.408       .  A
C538       Br539   1.926       .  S
C543        C544   1.400       .  A
C543        C548   1.424       .  A
C543        H550   1.070       .  S
C544        C545   1.395       .  A
C545        C546   1.430       .  A
C545       Br552   1.919       .  S
C546        C547   1.452       .  A
C546        H551   1.026       .  S
C547        C548   1.462       .  A
C548       Br549   1.956       .  S
C553        C554   1.374       .  A
C553        C558   1.413       .  A
C553        H560   1.090       .  S
C554        C555   1.395       .  A
C555        C556   1.406       .  A
C555       Br562   1.876       .  S
C556        C557   1.440       .  A
C556        H561   1.071       .  S
C557        C558   1.487       .  A
C558       Br559   1.966       .  S
C563        C564   1.395       .  A
C563        C568   1.436       .  A
C563        H570   1.082       .  S
C564        C565   1.388       .  A
C565        C566   1.414       .  A
C565       Br572   1.909       .  S
C566        C567   1.461       .  A
C566        H571   1.068       .  S
C567        C720   1.691       .  S
C567        C568   1.466       .  A
C568       Br569   1.867       .  S
C573        C574   1.414       .  A
C573        C578   1.439       .  A
C573        H580   1.074       .  S
C574        C575   1.364       .  A
C575        C576   1.380       .  A
C575       Br582   1.932       .  S
C576        C577   1.426       .  A
C576        H581   1.021       .  S
C577        C719   1.651       .  S
C577        C578   1.413       .  A
C578       Br579   1.876       .  S
C583        C584   1.391       .  A
C583        C588   1.429       .  A
C583        H590   1.038       .  S
C584        C585   1.466       .  A
C585        C586   1.391       .  A
C585       Br592   1.942       .  S
C586        C587   1.369       .  A
C586        H591   1.087       .  S
C587        C588   1.409       .  A
C588       Br589   1.917       .  S
C593        C594   1.359       .  A
C593        C598   1.412       .  A
C593        H600   1.085       .  S
C594        C595   1.362       .  A
C595        C596   1.400       .  A
C595       Br602   1.859       .  S
C596        C597   1.438       .  A
C596        H601   1.038       .  S
C597        C598   1.450       .  A
C598       Br599   1.909       .  S
C603        C604   1.375       .  A
C603        C608   1.384       .  A
C603        H610   1.098       .  S
C604        C605   1.418       .  A
C605        C606   1.433       .  A
C605       Br612   1.886       .  S
C606        C607   1.431       .  A
C606        H611   1.074       .  S
C607        C704   1.693       .  S
C607        C608   1.461       .  A
C608       Br609   1.969       .  S
C613        C614   1.385       .  A
C613        C618   1.433       .  A
C613        H620   1.089       .  S
C614        C615   1.377       .  A
C615        C616   1.419       .  A
C615       Br622   1.933       .  S
C616        C617   1.442       .  A
C616        H621   1.025       .  S
C617        C703   1.785       .  S
C617        C618   1.486       .  A
C618       Br619   1.882       .  S
C623        C624   1.378       .  A
C623        C628   1.410       .  A
C623        H630   1.085       .  S
C624        C625   1.390       .  A
C625        C626   1.427       .  A
C625       Br632   1.901       .  S
C626        C627   1.411       .  A
C626        H631   1.048       .  S
C627        C628   1.485       .  A
C628       Br629   1.949       .  S
C633        C634   1.430       .  A
C633        C638   1.428       .  A
C633        H640   1.051       .  S
C634        C688   1.726       .  S
C634        C635   1.510       .  A
C635        C636   1.418       .  A
C635       Br642   1.926       .  S
C636        C637   1.370       .  A
C636        H641   1.086       .  S
C637        C638   1.384       .  A
C638       Br639   1.893       .  S
C643        C644   1.475       .  A
C643        C648   1.415       .  A
C643        H650   1.069       .  S
C644        C645   1.459       .  A
C645        C646   1.432       .  A
C645       Br652   1.872       .  S
C646        C647   1.383       .  A
C646        H651   1.061       .  S
C647        C648   1.385       .  A
C648       Br649   1.917       .  S
C653        C654   1.379       .  A
C653        C658   1.411       .  A
C653        H660   1.085       .  S
C654        C655   1.399       .  A
C655        C656   1.410       .  A
C655       Br662   1.894       .  S
C656        C657   1.427       .  A
C656        H661   1.065       .  S
C657        C658   1.505       .  A
C658       Br883   1.966       .  S
Br659       C882   1.966   1_554  S
C663        C664   1.416       .  A
C663        C668   1.393       .  A
C663        H670   1.036       .  S
C664        C687   1.687       .  S
C664        C665   1.477       .  A
C665        C666   1.425       .  A
C665       Br672   1.940       .  S
C666        C667   1.384       .  A
C666        H671   1.082       .  S
C667        C668   1.377       .  A
C668       Br669   1.881       .  S
O673        C683   1.270       .  A
O674        C684   1.269       .  A
O674       Cu681   1.998   1_565  S
O675        C685   1.276       .  A
O675       Cu681   2.027   1_565  S
O676        C686   1.269       .  A
O677        C686   1.283       .  A
O677       Cu682   2.079       .  S
O678        C685   1.288       .  A
O679        C684   1.285       .  A
O680        C683   1.282       .  A
O680       Cu682   2.061       .  S
C683        C891   1.480       .  S
C684        C861   1.495       .  S
C685        C871   1.512       .  S
C686        C878   1.502       .  S
C687        C881   1.690   1_554  S
C688        C868   1.705       .  S
C688        C704   1.993       .  S
C688        C735   1.988       .  S
O689        C699   1.277       .  A
O690        C700   1.275       .  A
O690       Cu697   1.964       .  S
O691        C701   1.265       .  A
O691       Cu697   1.980       .  S
O692        C702   1.268       .  A
O693        C702   1.291       .  A
O694        C701   1.292       .  A
O694       Cu698   2.114       .  S
O695        C700   1.273       .  A
O695       Cu698   2.006       .  S
O696        C699   1.282       .  A
Cu697      Cu698   2.354       .  S
C699        C838   1.518       .  S
C700        C818   1.459       .  S
C701        C828   1.504       .  S
C702        C848   1.510       .  S
C703        C851   1.695       .  S
C703        C720   1.987       .  S
C704        C821   1.757       .  S
C704        C736   2.012       .  S
O705        C715   1.287       .  A
O705      Cu1609   2.099       .  S
O706        C716   1.280       .  A
O706       Cu713   2.040       .  S
O707        C717   1.287       .  A
O707       Cu713   2.069       .  S
O708        C718   1.285       .  A
O708      Cu1609   2.078       .  S
O709        C718   1.273       .  A
O709      Cu1610   2.019       .  S
O710        C717   1.267       .  A
O710       Cu714   2.004       .  S
O711        C716   1.264       .  A
O711       Cu714   1.968       .  S
O712        C715   1.281       .  A
O712      Cu1610   2.065       .  S
Cu713      O1601   2.099   1_455  S
Cu713      O1604   2.078   1_455  S
Cu713      Cu714   2.349       .  S
Cu714      O1605   2.019   1_455  S
Cu714      O1608   2.065   1_455  S
C715        C788   1.528       .  S
C716        C811   1.477       .  S
C717        C798   1.499       .  S
C718        C778   1.508       .  S
C719        C808   1.677       .  S
C719        C735   2.007       .  S
C720        C781   1.780       .  S
C720        C736   2.057       .  S
O721        C731   1.290       .  A
O721      Cu1625   2.070       .  S
O722        C732   1.285       .  A
O722       Cu729   2.069   1_455  S
O723        C733   1.281       .  A
O723       Cu729   2.053   1_455  S
O724        C734   1.272       .  A
O724      Cu1625   2.005       .  S
O725        C734   1.272       .  A
O725      Cu1626   1.946       .  S
O726        C733   1.272       .  A
O726       Cu730   2.015   1_455  S
O727        C732   1.263       .  A
O727       Cu730   1.941   1_455  S
O728        C731   1.260       .  A
O728      Cu1626   1.969       .  S
Cu729      O1617   2.070       .  S
Cu729      O1620   2.005       .  S
Cu729      Cu730   2.341       .  S
Cu730      O1621   1.946       .  S
Cu730      O1624   1.969       .  S
C731        C748   1.477       .  S
C732        C761   1.484       .  S
C733        C768   1.510       .  S
C734        C738   1.456       .  S
C735        C771   1.752       .  S
C736        C751   1.625       .  S
C737        C738   1.377       .  A
C737        C742   1.417       .  A
C737        H744   1.085       .  S
C738        C739   1.377       .  A
C739        C740   1.389       .  A
C739       Br746   1.942       .  S
C740        C741   1.394       .  A
C740        H745   1.076       .  S
C741        C742   1.507       .  A
C742       Br743   1.933   1_556  S
C747        C748   1.420       .  A
C747        C752   1.445       .  A
C747        H754   1.078       .  S
C748        C749   1.371       .  A
C749        C750   1.378       .  A
C749       Br756   1.931       .  S
C750        C751   1.448       .  A
C750        H755   1.076       .  S
C751        C752   1.397       .  A
C752       Br753   1.909       .  S
C757        C758   1.437       .  A
C757        C762   1.422       .  A
C757        H764   1.045       .  S
C758        C759   1.467       .  A
C759        C760   1.409       .  A
C759       Br766   1.953       .  S
C760        C761   1.375       .  A
C760        H765   1.088       .  S
C761        C762   1.404       .  A
C762       Br763   1.923       .  S
C767        C768   1.401       .  A
C767        C772   1.417       .  A
C767        H774   1.073       .  S
C768        C769   1.399       .  A
C769        C770   1.429       .  A
C769       Br776   1.923       .  S
C770        C771   1.448       .  A
C770        H775   1.025       .  S
C771        C772   1.456       .  A
C772       Br773   1.963       .  S
C777        C778   1.375       .  A
C777        C782   1.417       .  A
C777        H784   1.087       .  S
C778        C779   1.396       .  A
C779        C780   1.414       .  A
C779       Br786   1.877       .  S
C780        C781   1.450       .  A
C780        H785   1.074       .  S
C781        C782   1.486       .  A
C782       Br783   1.959       .  S
C787        C788   1.403       .  A
C787        C792   1.446       .  A
C787        H794   1.084       .  S
C788        C789   1.378       .  A
C789        C790   1.403       .  A
C789       Br796   1.910       .  S
C790        C791   1.463       .  A
C790        H795   1.056       .  S
C791        C792   1.473       .  A
C792       Br793   1.858       .  S
C797        C798   1.421       .  A
C797        C802   1.445       .  A
C797        H804   1.071       .  S
C798        C799   1.367       .  A
C799        C800   1.383       .  A
C799       Br806   1.930       .  S
C800        C801   1.427       .  A
C800        H805   1.019       .  S
C801        C802   1.413       .  A
C802       Br803   1.894       .  S
C807        C808   1.388       .  A
C807        C812   1.434       .  A
C807        H814   1.039       .  S
C808        C809   1.472       .  A
C809        C810   1.392       .  A
C809       Br816   1.942       .  S
C810        C811   1.367       .  A
C810        H815   1.087       .  S
C811        C812   1.404       .  A
C812       Br813   1.913       .  S
C817        C818   1.357       .  A
C817        C822   1.413       .  A
C817        H824   1.088       .  S
C818        C819   1.359       .  A
C819        C820   1.408       .  A
C819       Br826   1.878       .  S
C820        C821   1.454       .  A
C820        H825   1.047       .  S
C821        C822   1.455       .  A
C822       Br823   1.903       .  S
C827        C828   1.375       .  A
C827        C832   1.392       .  A
C827        H834   1.098       .  S
C828        C829   1.404       .  A
C829        C830   1.450       .  A
C829       Br836   1.876       .  S
C830        C831   1.455       .  A
C830        H835   1.080       .  S
C831        C832   1.473       .  A
C832       Br833   1.982       .  S
C837        C838   1.391       .  A
C837        C842   1.421       .  A
C837        H844   1.071       .  S
C838        C839   1.394       .  A
C839        C840   1.430       .  A
C839       Br846   1.923       .  S
C840        C841   1.449       .  A
C840        H845   1.007       .  S
C841        C842   1.463       .  A
C842       Br843   1.902       .  S
C847        C848   1.382       .  A
C847        C852   1.433       .  A
C847        H854   1.085       .  S
C848        C849   1.387       .  A
C849        C850   1.424       .  A
C849       Br856   1.913       .  S
C850        C851   1.410       .  A
C850        H855   1.051       .  S
C851        C852   1.501       .  A
C852       Br853   1.940       .  S
C857        C858   1.424       .  A
C857        C862   1.425       .  A
C857        H864   1.054       .  S
C858        C859   1.501       .  A
C859        C860   1.412       .  A
C859       Br866   1.918       .  S
C860        C861   1.370       .  A
C860        H865   1.086       .  S
C861        C862   1.394       .  A
C862       Br863   1.907       .  S
C867        C868   1.464       .  A
C867        C872   1.412       .  A
C867        H874   1.068       .  S
C868        C869   1.460       .  A
C869        C870   1.431       .  A
C869       Br876   1.860       .  S
C870        C871   1.380       .  A
C870        H875   1.075       .  S
C871        C872   1.383       .  A
C872       Br873   1.918       .  S
C877        C878   1.382       .  A
C877        C882   1.414       .  A
C877        H884   1.085       .  S
C878        C879   1.401       .  A
C879        C880   1.414       .  A
C879       Br886   1.897       .  S
C880        C881   1.420       .  A
C880        H885   1.052       .  S
C881        C882   1.504       .  A
C887        C888   1.423       .  A
C887        C892   1.398       .  A
C887        H894   1.026       .  S
C888        C889   1.474       .  A
C889        C890   1.425       .  A
C889       Br896   1.938       .  S
C890        C891   1.386       .  A
C890        H895   1.084       .  S
C891        C892   1.381       .  A
C892       Br893   1.903       .  S
O897        C907   1.266       .  A
O897      Cu1353   1.954       .  S
O898        C908   1.268       .  A
O898       Cu905   1.997       .  S
O899        C909   1.274       .  A
O899       Cu905   2.038       .  S
O900        C910   1.260       .  A
O900      Cu1353   1.984       .  S
O901        C910   1.284       .  A
O901       Cu906   2.088       .  S
O902        C909   1.291       .  A
O902      Cu1354   2.120       .  S
O903        C908   1.287       .  A
O903      Cu1354   2.088       .  S
O904        C907   1.281       .  A
O904       Cu906   2.068       .  S
Cu905      O1345   1.957       .  S
Cu905      O1348   1.989       .  S
Cu905     Cu1354   2.337       .  S
Cu906      O1350   2.119   1_545  S
Cu906      O1351   2.088   1_545  S
Cu906     Cu1353   2.336       .  S
C907       C1115   1.479       .  S
C908       C1085   1.501       .  S
C909       C1095   1.527       .  S
C910       C1102   1.490       .  S
C911       C1105   1.690       .  S
C911       C1336   1.697       .  S
C911       C1151   2.011       .  S
C911       C1167   2.010       .  S
C912       C1306   1.702       .  S
C912       C1092   1.715   1_556  S
C912        C928   2.003       .  S
C912        C959   1.985       .  S
O913        C923   1.266       .  A
O913      Cu1369   2.014   1_545  S
O914        C924   1.274       .  A
O914       Cu921   1.948       .  S
O915        C925   1.265       .  A
O915       Cu921   1.986       .  S
O916        C926   1.264       .  A
O916      Cu1369   1.977   1_545  S
O917        C926   1.289       .  A
O917      Cu1370   2.096   1_545  S
O918        C925   1.292       .  A
O918       Cu922   2.105       .  S
O919        C924   1.272       .  A
O919       Cu922   2.004       .  S
O920        C923   1.280       .  A
O920      Cu1370   2.045   1_545  S
Cu921      O1361   2.015       .  S
Cu921      O1364   1.978       .  S
Cu921      Cu922   2.346       .  S
Cu922      O1365   2.093       .  S
Cu922      O1368   2.049       .  S
C923       C1062   1.508       .  S
C924       C1042   1.460       .  S
C925       C1052   1.497       .  S
C926       C1072   1.497       .  S
C927       C1289   1.770   1_554  S
C927       C1075   1.705       .  S
C927       C1135   2.013       .  S
C927        C944   1.966       .  S
C928       C1045   1.743   1_556  S
C928       C1279   1.737       .  S
C928        C960   2.024       .  S
O929        C939   1.289       .  A
O930        C940   1.281       .  A
O930       Cu937   2.046       .  S
O931        C941   1.283       .  A
O931       Cu937   2.042       .  S
O932        C942   1.283       .  A
O933        C942   1.271       .  A
O934        C941   1.267       .  A
O934       Cu938   1.990       .  S
O935        C940   1.261       .  A
O935       Cu938   1.957       .  S
O936        C939   1.280       .  A
Cu937      Cu938   2.349       .  S
C939       C1012   1.527       .  S
C940       C1035   1.476       .  S
C941       C1022   1.484       .  S
C942       C1002   1.497       .  S
C943       C1249   1.657   1_554  S
C943       C1032   1.674       .  S
C943       C1135   2.010       .  S
C943        C959   2.002   1_554  S
C944       C1005   1.774       .  S
C944       C1239   1.721   1_554  S
C944        C960   2.052   1_554  S
O945        C955   1.292       .  A
O946        C956   1.286       .  A
O946       Cu953   2.076       .  S
O947        C957   1.281       .  A
O947       Cu953   2.052       .  S
O948        C958   1.270       .  A
O949        C958   1.278       .  A
O950        C957   1.272       .  A
O950       Cu954   2.034       .  S
O951        C956   1.262       .  A
O951       Cu954   1.935       .  S
O952        C955   1.261       .  A
Cu953      Cu954   2.335       .  S
C955        C972   1.489       .  S
C956        C985   1.485       .  S
C957        C992   1.520       .  S
C958        C962   1.469       .  S
C959       C1206   1.757       .  S
C959        C995   1.767   1_556  S
C960       C1189   1.687       .  S
C960        C975   1.633   1_556  S
C961        C962   1.383       .  A
C961        C966   1.430       .  A
C961        H968   1.084       .  S
C962        C963   1.368       .  A
C963        C964   1.394       .  A
C963       Br970   1.936       .  S
C964        C965   1.385       .  A
C964        H969   1.081       .  S
C965       C1184   1.703       .  S
C965        C966   1.513       .  A
C966       Br967   1.943       .  S
C971        C972   1.418       .  A
C971        C976   1.449       .  A
C971        H978   1.078       .  S
C972        C973   1.375       .  A
C973        C974   1.385       .  A
C973       Br980   1.929       .  S
C974        C975   1.448       .  A
C974        H979   1.075       .  S
C975        C976   1.404       .  A
C976       Br977   1.904       .  S
C981        C982   1.436       .  A
C981        C986   1.423       .  A
C981        H988   1.041       .  S
C982       C1183   1.749       .  S
C982        C983   1.457       .  A
C983        C984   1.408       .  A
C983       Br990   1.950       .  S
C984        C985   1.378       .  A
C984        H989   1.088       .  S
C985        C986   1.407       .  A
C986       Br987   1.927       .  S
C991        C992   1.400       .  A
C991        C996   1.423       .  A
C991        H998   1.069       .  S
C992        C993   1.395       .  A
C993        C994   1.429       .  A
C993      Br1000   1.920       .  S
C994        C995   1.452       .  A
C994        H999   1.025       .  S
C995        C996   1.461       .  A
C996       Br997   1.957       .  S
C1001      C1002   1.374       .  A
C1001      C1006   1.413       .  A
C1001      H1008   1.089       .  S
C1002      C1003   1.396       .  A
C1003      C1004   1.407       .  A
C1003     Br1010   1.876       .  S
C1004      C1005   1.440       .  A
C1004      H1009   1.070       .  S
C1005      C1006   1.488       .  A
C1006     Br1007   1.966       .  S
C1011      C1012   1.395       .  A
C1011      C1016   1.435       .  A
C1011      H1018   1.082       .  S
C1012      C1013   1.389       .  A
C1013      C1014   1.414       .  A
C1013     Br1020   1.908       .  S
C1014      C1015   1.461       .  A
C1014      H1019   1.069       .  S
C1015      C1168   1.690       .  S
C1015      C1016   1.465       .  A
C1016     Br1017   1.867       .  S
C1021      C1022   1.415       .  A
C1021      C1026   1.440       .  A
C1021      H1028   1.075       .  S
C1022      C1023   1.364       .  A
C1023      C1024   1.379       .  A
C1023     Br1030   1.932       .  S
C1024      C1025   1.426       .  A
C1024      H1029   1.022       .  S
C1025      C1167   1.651       .  S
C1025      C1026   1.413       .  A
C1026     Br1027   1.879       .  S
C1031      C1032   1.391       .  A
C1031      C1036   1.430       .  A
C1031      H1038   1.038       .  S
C1032      C1033   1.466       .  A
C1033      C1034   1.391       .  A
C1033     Br1040   1.941       .  S
C1034      C1035   1.370       .  A
C1034      H1039   1.087       .  S
C1035      C1036   1.409       .  A
C1036     Br1037   1.917       .  S
C1041      C1042   1.361       .  A
C1041      C1046   1.412       .  A
C1041      H1048   1.084       .  S
C1042      C1043   1.364       .  A
C1043      C1044   1.400       .  A
C1043     Br1050   1.859       .  S
C1044      C1045   1.437       .  A
C1044      H1049   1.038       .  S
C1045      C1046   1.449       .  A
C1046     Br1047   1.908       .  S
C1051      C1052   1.375       .  A
C1051      C1056   1.386       .  A
C1051      H1058   1.099       .  S
C1052      C1053   1.415       .  A
C1053      C1054   1.434       .  A
C1053     Br1060   1.882       .  S
C1054      C1055   1.433       .  A
C1054      H1059   1.075       .  S
C1055      C1152   1.697       .  S
C1055      C1056   1.463       .  A
C1056     Br1057   1.971       .  S
C1061      C1062   1.383       .  A
C1061      C1066   1.432       .  A
C1061      H1068   1.089       .  S
C1062      C1063   1.377       .  A
C1063      C1064   1.418       .  A
C1063     Br1070   1.934       .  S
C1064      C1065   1.441       .  A
C1064      H1069   1.026       .  S
C1065      C1151   1.785       .  S
C1065      C1066   1.487       .  A
C1066     Br1067   1.883       .  S
C1071      C1072   1.378       .  A
C1071      C1076   1.411       .  A
C1071      H1078   1.085       .  S
C1072      C1073   1.390       .  A
C1073      C1074   1.428       .  A
C1073     Br1080   1.901       .  S
C1074      C1075   1.412       .  A
C1074      H1079   1.048       .  S
C1075      C1076   1.486       .  A
C1076     Br1077   1.950       .  S
C1081      C1082   1.429       .  A
C1081      C1086   1.428       .  A
C1081      H1088   1.053       .  S
C1082      C1136   1.723       .  S
C1082      C1083   1.510       .  A
C1083      C1084   1.418       .  A
C1083     Br1090   1.926       .  S
C1084      C1085   1.371       .  A
C1084      H1089   1.086       .  S
C1085      C1086   1.386       .  A
C1086     Br1087   1.893       .  S
C1091      C1092   1.475       .  A
C1091      C1096   1.415       .  A
C1091      H1098   1.068       .  S
C1092      C1093   1.461       .  A
C1093      C1094   1.433       .  A
C1093     Br1100   1.872       .  S
C1094      C1095   1.383       .  A
C1094      H1099   1.063       .  S
C1095      C1096   1.385       .  A
C1096     Br1097   1.917       .  S
C1101      C1102   1.379       .  A
C1101      C1106   1.412       .  A
C1101      H1108   1.085       .  S
C1102      C1103   1.398       .  A
C1103      C1104   1.409       .  A
C1103     Br1110   1.895       .  S
C1104      C1105   1.427       .  A
C1104      H1109   1.065       .  S
C1105      C1106   1.505       .  A
C1106     Br1331   1.965       .  S
Br1107     C1330   1.965   1_554  S
C1111      C1112   1.417       .  A
C1111      C1116   1.393       .  A
C1111      H1118   1.035       .  S
C1112      C1135   1.686       .  S
C1112      C1113   1.475       .  A
C1113      C1114   1.425       .  A
C1113     Br1120   1.940       .  S
C1114      C1115   1.384       .  A
C1114      H1119   1.082       .  S
C1115      C1116   1.378       .  A
C1116     Br1117   1.884       .  S
O1121      C1131   1.270       .  A
O1121     Cu1577   1.956       .  S
O1122      C1132   1.269       .  A
O1122     Cu1129   2.000       .  S
O1123      C1133   1.276       .  A
O1123     Cu1129   2.030       .  S
O1124      C1134   1.268       .  A
O1124     Cu1577   1.989       .  S
O1125      C1134   1.282       .  A
O1125     Cu1130   2.078       .  S
O1126      C1133   1.288       .  A
O1126     Cu1578   2.097       .  S
O1127      C1132   1.285       .  A
O1127     Cu1578   2.074       .  S
O1128      C1131   1.282       .  A
O1128     Cu1130   2.060       .  S
Cu1129     O1569   1.958       .  S
Cu1129     O1572   1.993       .  S
Cu1129    Cu1578   2.352       .  S
Cu1130     O1574   2.094   1_545  S
Cu1130     O1575   2.073   1_545  S
Cu1130    Cu1577   2.353       .  S
C1131      C1339   1.479       .  S
C1132      C1309   1.496       .  S
C1133      C1319   1.515       .  S
C1134      C1326   1.500       .  S
C1135      C1329   1.689   1_554  S
C1136      C1316   1.707       .  S
C1136      C1152   1.994       .  S
C1136      C1183   1.987       .  S
O1137      C1147   1.277       .  A
O1137     Cu1593   2.024   1_545  S
O1138      C1148   1.275       .  A
O1138     Cu1145   1.964       .  S
O1139      C1149   1.265       .  A
O1139     Cu1145   1.978       .  S
O1140      C1150   1.268       .  A
O1140     Cu1593   1.971   1_545  S
O1141      C1150   1.290       .  A
O1141     Cu1594   2.112   1_545  S
O1142      C1149   1.292       .  A
O1142     Cu1146   2.112       .  S
O1143      C1148   1.273       .  A
O1143     Cu1146   2.011       .  S
O1144      C1147   1.281       .  A
O1144     Cu1594   2.061   1_545  S
Cu1145     O1585   2.023       .  S
Cu1145     O1588   1.974       .  S
Cu1145    Cu1146   2.354       .  S
Cu1146     O1589   2.113       .  S
Cu1146     O1592   2.064       .  S
C1147      C1286   1.518       .  S
C1148      C1266   1.462       .  S
C1149      C1276   1.503       .  S
C1150      C1296   1.509       .  S
C1151      C1299   1.694       .  S
C1151      C1168   1.987       .  S
C1152      C1269   1.757       .  S
C1152      C1184   2.014       .  S
O1153      C1163   1.287       .  A
O1154      C1164   1.280       .  A
O1154     Cu1161   2.039       .  S
O1155      C1165   1.287       .  A
O1155     Cu1161   2.069       .  S
O1156      C1166   1.285       .  A
O1157      C1166   1.273       .  A
O1158      C1165   1.267       .  A
O1158     Cu1162   2.004       .  S
O1159      C1164   1.264       .  A
O1159     Cu1162   1.966       .  S
O1160      C1163   1.281       .  A
Cu1161    Cu1162   2.348       .  S
C1163      C1236   1.529       .  S
C1164      C1259   1.476       .  S
C1165      C1246   1.499       .  S
C1166      C1226   1.509       .  S
C1167      C1256   1.676       .  S
C1167      C1183   2.007       .  S
C1168      C1229   1.779       .  S
C1168      C1184   2.058       .  S
O1169      C1179   1.290       .  A
O1170      C1180   1.284       .  A
O1170     Cu1177   2.068       .  S
O1171      C1181   1.281       .  A
O1171     Cu1177   2.053       .  S
O1172      C1182   1.272       .  A
O1173      C1182   1.272       .  A
O1174      C1181   1.272       .  A
O1174     Cu1178   2.015       .  S
O1175      C1180   1.263       .  A
O1175     Cu1178   1.942       .  S
O1176      C1179   1.259       .  A
Cu1177    Cu1178   2.341       .  S
C1179      C1196   1.476       .  S
C1180      C1209   1.484       .  S
C1181      C1216   1.510       .  S
C1182      C1186   1.457       .  S
C1183      C1219   1.752       .  S
C1184      C1199   1.624       .  S
C1185      C1186   1.378       .  A
C1185      C1190   1.418       .  A
C1185      H1192   1.085       .  S
C1186      C1187   1.377       .  A
C1187      C1188   1.389       .  A
C1187     Br1194   1.942       .  S
C1188      C1189   1.394       .  A
C1188      H1193   1.077       .  S
C1189      C1190   1.507       .  A
C1190     Br1191   1.932   1_556  S
C1195      C1196   1.420       .  A
C1195      C1200   1.446       .  A
C1195      H1202   1.078       .  S
C1196      C1197   1.371       .  A
C1197      C1198   1.377       .  A
C1197     Br1204   1.932       .  S
C1198      C1199   1.448       .  A
C1198      H1203   1.076       .  S
C1199      C1200   1.397       .  A
C1200     Br1201   1.911       .  S
C1205      C1206   1.437       .  A
C1205      C1210   1.422       .  A
C1205      H1212   1.045       .  S
C1206      C1207   1.468       .  A
C1207      C1208   1.409       .  A
C1207     Br1214   1.953       .  S
C1208      C1209   1.375       .  A
C1208      H1213   1.088       .  S
C1209      C1210   1.403       .  A
C1210     Br1211   1.923       .  S
C1215      C1216   1.401       .  A
C1215      C1220   1.417       .  A
C1215      H1222   1.073       .  S
C1216      C1217   1.398       .  A
C1217      C1218   1.429       .  A
C1217     Br1224   1.923       .  S
C1218      C1219   1.448       .  A
C1218      H1223   1.025       .  S
C1219      C1220   1.456       .  A
C1220     Br1221   1.962       .  S
C1225      C1226   1.375       .  A
C1225      C1230   1.417       .  A
C1225      H1232   1.087       .  S
C1226      C1227   1.397       .  A
C1227      C1228   1.414       .  A
C1227     Br1234   1.876       .  S
C1228      C1229   1.450       .  A
C1228      H1233   1.074       .  S
C1229      C1230   1.485       .  A
C1230     Br1231   1.959       .  S
C1235      C1236   1.403       .  A
C1235      C1240   1.446       .  A
C1235      H1242   1.084       .  S
C1236      C1237   1.378       .  A
C1237      C1238   1.403       .  A
C1237     Br1244   1.909       .  S
C1238      C1239   1.462       .  A
C1238      H1243   1.055       .  S
C1239      C1240   1.474       .  A
C1240     Br1241   1.858       .  S
C1245      C1246   1.422       .  A
C1245      C1250   1.446       .  A
C1245      H1252   1.072       .  S
C1246      C1247   1.367       .  A
C1247      C1248   1.383       .  A
C1247     Br1254   1.931       .  S
C1248      C1249   1.427       .  A
C1248      H1253   1.020       .  S
C1249      C1250   1.414       .  A
C1250     Br1251   1.896       .  S
C1255      C1256   1.388       .  A
C1255      C1260   1.434       .  A
C1255      H1262   1.039       .  S
C1256      C1257   1.472       .  A
C1257      C1258   1.391       .  A
C1257     Br1264   1.943       .  S
C1258      C1259   1.367       .  A
C1258      H1263   1.087       .  S
C1259      C1260   1.404       .  A
C1260     Br1261   1.914       .  S
C1265      C1266   1.358       .  A
C1265      C1270   1.414       .  A
C1265      H1272   1.088       .  S
C1266      C1267   1.360       .  A
C1267      C1268   1.407       .  A
C1267     Br1274   1.874       .  S
C1268      C1269   1.452       .  A
C1268      H1273   1.046       .  S
C1269      C1270   1.456       .  A
C1270     Br1271   1.905       .  S
C1275      C1276   1.374       .  A
C1275      C1280   1.391       .  A
C1275      H1282   1.098       .  S
C1276      C1277   1.403       .  A
C1277      C1278   1.450       .  A
C1277     Br1284   1.878       .  S
C1278      C1279   1.456       .  A
C1278      H1283   1.080       .  S
C1279      C1280   1.474       .  A
C1280     Br1281   1.982       .  S
C1285      C1286   1.391       .  A
C1285      C1290   1.420       .  A
C1285      H1292   1.071       .  S
C1286      C1287   1.395       .  A
C1287      C1288   1.429       .  A
C1287     Br1294   1.923       .  S
C1288      C1289   1.448       .  A
C1288      H1293   1.005       .  S
C1289      C1290   1.462       .  A
C1290     Br1291   1.899       .  S
C1295      C1296   1.382       .  A
C1295      C1300   1.433       .  A
C1295      H1302   1.085       .  S
C1296      C1297   1.387       .  A
C1297      C1298   1.424       .  A
C1297     Br1304   1.913       .  S
C1298      C1299   1.410       .  A
C1298      H1303   1.051       .  S
C1299      C1300   1.501       .  A
C1300     Br1301   1.941       .  S
C1305      C1306   1.424       .  A
C1305      C1310   1.426       .  A
C1305      H1312   1.055       .  S
C1306      C1307   1.501       .  A
C1307      C1308   1.412       .  A
C1307     Br1314   1.918       .  S
C1308      C1309   1.371       .  A
C1308      H1313   1.086       .  S
C1309      C1310   1.394       .  A
C1310     Br1311   1.906       .  S
C1315      C1316   1.466       .  A
C1315      C1320   1.412       .  A
C1315      H1322   1.068       .  S
C1316      C1317   1.460       .  A
C1317      C1318   1.432       .  A
C1317     Br1324   1.861       .  S
C1318      C1319   1.381       .  A
C1318      H1323   1.075       .  S
C1319      C1320   1.384       .  A
C1320     Br1321   1.918       .  S
C1325      C1326   1.381       .  A
C1325      C1330   1.413       .  A
C1325      H1332   1.085       .  S
C1326      C1327   1.401       .  A
C1327      C1328   1.414       .  A
C1327     Br1334   1.897       .  S
C1328      C1329   1.420       .  A
C1328      H1333   1.051       .  S
C1329      C1330   1.504       .  A
C1335      C1336   1.423       .  A
C1335      C1340   1.399       .  A
C1335      H1342   1.028       .  S
C1336      C1337   1.473       .  A
C1337      C1338   1.425       .  A
C1337     Br1344   1.939       .  S
C1338      C1339   1.386       .  A
C1338      H1343   1.084       .  S
C1339      C1340   1.382       .  A
C1340     Br1341   1.908       .  S
O1345      C1355   1.266       .  A
O1346      C1356   1.268       .  A
O1346     Cu1353   1.995   1_565  S
O1347      C1357   1.273       .  A
O1347     Cu1353   2.035   1_565  S
O1348      C1358   1.260       .  A
O1349      C1358   1.285       .  A
O1349     Cu1354   2.088       .  S
O1350      C1357   1.290       .  A
O1351      C1356   1.287       .  A
O1352      C1355   1.282       .  A
O1352     Cu1354   2.070       .  S
C1355      C1563   1.481       .  S
C1356      C1533   1.500       .  S
C1357      C1543   1.525       .  S
C1358      C1550   1.491       .  S
C1359      C1553   1.691       .  S
C1359      C1784   1.697       .  S
C1359      C1599   2.012       .  S
C1359      C1615   2.010       .  S
C1360      C1754   1.702       .  S
C1360      C1540   1.713   1_556  S
C1360      C1376   2.002       .  S
C1360      C1407   1.985       .  S
O1361      C1371   1.266       .  A
O1362      C1372   1.274       .  A
O1362     Cu1369   1.949       .  S
O1363      C1373   1.265       .  A
O1363     Cu1369   1.990       .  S
O1364      C1374   1.264       .  A
O1365      C1374   1.288       .  A
O1366      C1373   1.292       .  A
O1366     Cu1370   2.106       .  S
O1367      C1372   1.271       .  A
O1367     Cu1370   1.999       .  S
O1368      C1371   1.281       .  A
Cu1369    Cu1370   2.344       .  S
C1371      C1510   1.510       .  S
C1372      C1490   1.459       .  S
C1373      C1500   1.498       .  S
C1374      C1520   1.496       .  S
C1375      C1737   1.771   1_554  S
C1375      C1523   1.704       .  S
C1375      C1583   2.012       .  S
C1375      C1392   1.967       .  S
C1376      C1493   1.745   1_556  S
C1376      C1727   1.736       .  S
C1376      C1408   2.023       .  S
O1377      C1387   1.288       .  A
O1378      C1388   1.281       .  A
O1378     Cu1385   2.045       .  S
O1379      C1389   1.283       .  A
O1379     Cu1385   2.041       .  S
O1380      C1390   1.283       .  A
O1381      C1390   1.271       .  A
O1382      C1389   1.267       .  A
O1382     Cu1386   1.991       .  S
O1383      C1388   1.261       .  A
O1383     Cu1386   1.956       .  S
O1384      C1387   1.279       .  A
Cu1385    Cu1386   2.348       .  S
C1387      C1460   1.526       .  S
C1388      C1483   1.475       .  S
C1389      C1470   1.484       .  S
C1390      C1450   1.497       .  S
C1391      C1697   1.657   1_554  S
C1391      C1480   1.672       .  S
C1391      C1583   2.010       .  S
C1391      C1407   2.002   1_554  S
C1392      C1453   1.772       .  S
C1392      C1687   1.720   1_554  S
C1392      C1408   2.052   1_554  S
O1393      C1403   1.292       .  A
O1394      C1404   1.286       .  A
O1394     Cu1401   2.077       .  S
O1395      C1405   1.281       .  A
O1395     Cu1401   2.052       .  S
O1396      C1406   1.270       .  A
O1397      C1406   1.278       .  A
O1398      C1405   1.272       .  A
O1398     Cu1402   2.037       .  S
O1399      C1404   1.262       .  A
O1399     Cu1402   1.935       .  S
O1400      C1403   1.261       .  A
Cu1401    Cu1402   2.335       .  S
C1403      C1420   1.490       .  S
C1404      C1433   1.486       .  S
C1405      C1440   1.521       .  S
C1406      C1410   1.469       .  S
C1407      C1654   1.757       .  S
C1407      C1443   1.768   1_556  S
C1408      C1637   1.686       .  S
C1408      C1423   1.635   1_556  S
C1409      C1410   1.383       .  A
C1409      C1414   1.430       .  A
C1409      H1416   1.085       .  S
C1410      C1411   1.367       .  A
C1411      C1412   1.394       .  A
C1411     Br1418   1.934       .  S
C1412      C1413   1.384       .  A
C1412      H1417   1.081       .  S
C1413      C1632   1.704       .  S
C1413      C1414   1.513       .  A
C1414     Br1415   1.945       .  S
C1419      C1420   1.418       .  A
C1419      C1424   1.449       .  A
C1419      H1426   1.078       .  S
C1420      C1421   1.376       .  A
C1421      C1422   1.385       .  A
C1421     Br1428   1.929       .  S
C1422      C1423   1.449       .  A
C1422      H1427   1.075       .  S
C1423      C1424   1.403       .  A
C1424     Br1425   1.904       .  S
C1429      C1430   1.436       .  A
C1429      C1434   1.424       .  A
C1429      H1436   1.041       .  S
C1430      C1631   1.747       .  S
C1430      C1431   1.454       .  A
C1431      C1432   1.407       .  A
C1431     Br1438   1.950       .  S
C1432      C1433   1.379       .  A
C1432      H1437   1.088       .  S
C1433      C1434   1.408       .  A
C1434     Br1435   1.926       .  S
C1439      C1440   1.400       .  A
C1439      C1444   1.424       .  A
C1439      H1446   1.070       .  S
C1440      C1441   1.395       .  A
C1441      C1442   1.430       .  A
C1441     Br1448   1.919       .  S
C1442      C1443   1.452       .  A
C1442      H1447   1.026       .  S
C1443      C1444   1.462       .  A
C1444     Br1445   1.956       .  S
C1449      C1450   1.374       .  A
C1449      C1454   1.413       .  A
C1449      H1456   1.090       .  S
C1450      C1451   1.395       .  A
C1451      C1452   1.406       .  A
C1451     Br1458   1.876       .  S
C1452      C1453   1.440       .  A
C1452      H1457   1.071       .  S
C1453      C1454   1.488       .  A
C1454     Br1455   1.967       .  S
C1459      C1460   1.395       .  A
C1459      C1464   1.436       .  A
C1459      H1466   1.082       .  S
C1460      C1461   1.388       .  A
C1461      C1462   1.414       .  A
C1461     Br1468   1.909       .  S
C1462      C1463   1.461       .  A
C1462      H1467   1.068       .  S
C1463      C1616   1.692       .  S
C1463      C1464   1.466       .  A
C1464     Br1465   1.867       .  S
C1469      C1470   1.414       .  A
C1469      C1474   1.439       .  A
C1469      H1476   1.074       .  S
C1470      C1471   1.364       .  A
C1471      C1472   1.380       .  A
C1471     Br1478   1.932       .  S
C1472      C1473   1.426       .  A
C1472      H1477   1.021       .  S
C1473      C1615   1.651       .  S
C1473      C1474   1.413       .  A
C1474     Br1475   1.876       .  S
C1479      C1480   1.391       .  A
C1479      C1484   1.429       .  A
C1479      H1486   1.038       .  S
C1480      C1481   1.466       .  A
C1481      C1482   1.391       .  A
C1481     Br1488   1.942       .  S
C1482      C1483   1.369       .  A
C1482      H1487   1.087       .  S
C1483      C1484   1.409       .  A
C1484     Br1485   1.917       .  S
C1489      C1490   1.359       .  A
C1489      C1494   1.412       .  A
C1489      H1496   1.085       .  S
C1490      C1491   1.362       .  A
C1491      C1492   1.400       .  A
C1491     Br1498   1.859       .  S
C1492      C1493   1.438       .  A
C1492      H1497   1.038       .  S
C1493      C1494   1.450       .  A
C1494     Br1495   1.909       .  S
C1499      C1500   1.375       .  A
C1499      C1504   1.385       .  A
C1499      H1506   1.098       .  S
C1500      C1501   1.418       .  A
C1501      C1502   1.434       .  A
C1501     Br1508   1.886       .  S
C1502      C1503   1.431       .  A
C1502      H1507   1.074       .  S
C1503      C1600   1.693       .  S
C1503      C1504   1.461       .  A
C1504     Br1505   1.969       .  S
C1509      C1510   1.385       .  A
C1509      C1514   1.433       .  A
C1509      H1516   1.089       .  S
C1510      C1511   1.377       .  A
C1511      C1512   1.419       .  A
C1511     Br1518   1.933       .  S
C1512      C1513   1.442       .  A
C1512      H1517   1.025       .  S
C1513      C1599   1.785       .  S
C1513      C1514   1.486       .  A
C1514     Br1515   1.882       .  S
C1519      C1520   1.378       .  A
C1519      C1524   1.410       .  A
C1519      H1526   1.085       .  S
C1520      C1521   1.390       .  A
C1521      C1522   1.427       .  A
C1521     Br1528   1.901       .  S
C1522      C1523   1.411       .  A
C1522      H1527   1.048       .  S
C1523      C1524   1.485       .  A
C1524     Br1525   1.949       .  S
C1529      C1530   1.430       .  A
C1529      C1534   1.428       .  A
C1529      H1536   1.051       .  S
C1530      C1584   1.726       .  S
C1530      C1531   1.510       .  A
C1531      C1532   1.418       .  A
C1531     Br1538   1.926       .  S
C1532      C1533   1.370       .  A
C1532      H1537   1.086       .  S
C1533      C1534   1.384       .  A
C1534     Br1535   1.893       .  S
C1539      C1540   1.475       .  A
C1539      C1544   1.415       .  A
C1539      H1546   1.069       .  S
C1540      C1541   1.460       .  A
C1541      C1542   1.432       .  A
C1541     Br1548   1.873       .  S
C1542      C1543   1.383       .  A
C1542      H1547   1.061       .  S
C1543      C1544   1.385       .  A
C1544     Br1545   1.917       .  S
C1549      C1550   1.379       .  A
C1549      C1554   1.411       .  A
C1549      H1556   1.085       .  S
C1550      C1551   1.399       .  A
C1551      C1552   1.410       .  A
C1551     Br1558   1.894       .  S
C1552      C1553   1.426       .  A
C1552      H1557   1.065       .  S
C1553      C1554   1.505       .  A
C1554     Br1779   1.966       .  S
Br1555     C1778   1.966   1_554  S
C1559      C1560   1.416       .  A
C1559      C1564   1.393       .  A
C1559      H1566   1.036       .  S
C1560      C1583   1.687       .  S
C1560      C1561   1.477       .  A
C1561      C1562   1.425       .  A
C1561     Br1568   1.941       .  S
C1562      C1563   1.384       .  A
C1562      H1567   1.082       .  S
C1563      C1564   1.377       .  A
C1564     Br1565   1.881       .  S
O1569      C1579   1.270       .  A
O1570      C1580   1.269       .  A
O1570     Cu1577   1.998   1_565  S
O1571      C1581   1.276       .  A
O1571     Cu1577   2.027   1_565  S
O1572      C1582   1.269       .  A
O1573      C1582   1.283       .  A
O1573     Cu1578   2.080       .  S
O1574      C1581   1.288       .  A
O1575      C1580   1.285       .  A
O1576      C1579   1.282       .  A
O1576     Cu1578   2.061       .  S
C1579      C1787   1.480       .  S
C1580      C1757   1.495       .  S
C1581      C1767   1.512       .  S
C1582      C1774   1.502       .  S
C1583      C1777   1.690   1_554  S
C1584      C1764   1.705       .  S
C1584      C1600   1.993       .  S
C1584      C1631   1.988       .  S
O1585      C1595   1.277       .  A
O1586      C1596   1.275       .  A
O1586     Cu1593   1.965       .  S
O1587      C1597   1.265       .  A
O1587     Cu1593   1.980       .  S
O1588      C1598   1.268       .  A
O1589      C1598   1.291       .  A
O1590      C1597   1.292       .  A
O1590     Cu1594   2.114       .  S
O1591      C1596   1.273       .  A
O1591     Cu1594   2.006       .  S
O1592      C1595   1.282       .  A
Cu1593    Cu1594   2.354       .  S
C1595      C1734   1.518       .  S
C1596      C1714   1.460       .  S
C1597      C1724   1.504       .  S
C1598      C1744   1.510       .  S
C1599      C1747   1.695       .  S
C1599      C1616   1.987       .  S
C1600      C1717   1.757       .  S
C1600      C1632   2.012       .  S
O1601      C1611   1.287       .  A
O1602      C1612   1.280       .  A
O1602     Cu1609   2.040       .  S
O1603      C1613   1.287       .  A
O1603     Cu1609   2.069       .  S
O1604      C1614   1.285       .  A
O1605      C1614   1.273       .  A
O1606      C1613   1.267       .  A
O1606     Cu1610   2.004       .  S
O1607      C1612   1.265       .  A
O1607     Cu1610   1.968       .  S
O1608      C1611   1.281       .  A
Cu1609    Cu1610   2.349       .  S
C1611      C1684   1.528       .  S
C1612      C1707   1.477       .  S
C1613      C1694   1.499       .  S
C1614      C1674   1.508       .  S
C1615      C1704   1.677       .  S
C1615      C1631   2.007       .  S
C1616      C1677   1.780       .  S
C1616      C1632   2.057       .  S
O1617      C1627   1.290       .  A
O1618      C1628   1.285       .  A
O1618     Cu1625   2.069       .  S
O1619      C1629   1.281       .  A
O1619     Cu1625   2.053       .  S
O1620      C1630   1.272       .  A
O1621      C1630   1.272       .  A
O1622      C1629   1.272       .  A
O1622     Cu1626   2.015       .  S
O1623      C1628   1.263       .  A
O1623     Cu1626   1.941       .  S
O1624      C1627   1.260       .  A
Cu1625    Cu1626   2.341       .  S
C1627      C1644   1.477       .  S
C1628      C1657   1.484       .  S
C1629      C1664   1.510       .  S
C1630      C1634   1.456       .  S
C1631      C1667   1.752       .  S
C1632      C1647   1.625       .  S
C1633      C1634   1.377       .  A
C1633      C1638   1.417       .  A
C1633      H1640   1.085       .  S
C1634      C1635   1.377       .  A
C1635      C1636   1.389       .  A
C1635     Br1642   1.942       .  S
C1636      C1637   1.394       .  A
C1636      H1641   1.076       .  S
C1637      C1638   1.507       .  A
C1638     Br1639   1.933   1_556  S
C1643      C1644   1.420       .  A
C1643      C1648   1.446       .  A
C1643      H1650   1.078       .  S
C1644      C1645   1.371       .  A
C1645      C1646   1.378       .  A
C1645     Br1652   1.931       .  S
C1646      C1647   1.448       .  A
C1646      H1651   1.076       .  S
C1647      C1648   1.397       .  A
C1648     Br1649   1.909       .  S
C1653      C1654   1.437       .  A
C1653      C1658   1.422       .  A
C1653      H1660   1.045       .  S
C1654      C1655   1.467       .  A
C1655      C1656   1.409       .  A
C1655     Br1662   1.953       .  S
C1656      C1657   1.375       .  A
C1656      H1661   1.088       .  S
C1657      C1658   1.404       .  A
C1658     Br1659   1.923       .  S
C1663      C1664   1.401       .  A
C1663      C1668   1.417       .  A
C1663      H1670   1.073       .  S
C1664      C1665   1.399       .  A
C1665      C1666   1.429       .  A
C1665     Br1672   1.923       .  S
C1666      C1667   1.448       .  A
C1666      H1671   1.025       .  S
C1667      C1668   1.456       .  A
C1668     Br1669   1.963       .  S
C1673      C1674   1.375       .  A
C1673      C1678   1.417       .  A
C1673      H1680   1.087       .  S
C1674      C1675   1.396       .  A
C1675      C1676   1.414       .  A
C1675     Br1682   1.877       .  S
C1676      C1677   1.450       .  A
C1676      H1681   1.074       .  S
C1677      C1678   1.486       .  A
C1678     Br1679   1.959       .  S
C1683      C1684   1.403       .  A
C1683      C1688   1.446       .  A
C1683      H1690   1.084       .  S
C1684      C1685   1.378       .  A
C1685      C1686   1.403       .  A
C1685     Br1692   1.910       .  S
C1686      C1687   1.462       .  A
C1686      H1691   1.055       .  S
C1687      C1688   1.473       .  A
C1688     Br1689   1.858       .  S
C1693      C1694   1.422       .  A
C1693      C1698   1.445       .  A
C1693      H1700   1.071       .  S
C1694      C1695   1.367       .  A
C1695      C1696   1.383       .  A
C1695     Br1702   1.931       .  S
C1696      C1697   1.427       .  A
C1696      H1701   1.019       .  S
C1697      C1698   1.413       .  A
C1698     Br1699   1.894       .  S
C1703      C1704   1.388       .  A
C1703      C1708   1.434       .  A
C1703      H1710   1.039       .  S
C1704      C1705   1.472       .  A
C1705      C1706   1.392       .  A
C1705     Br1712   1.942       .  S
C1706      C1707   1.367       .  A
C1706      H1711   1.087       .  S
C1707      C1708   1.404       .  A
C1708     Br1709   1.913       .  S
C1713      C1714   1.357       .  A
C1713      C1718   1.413       .  A
C1713      H1720   1.088       .  S
C1714      C1715   1.359       .  A
C1715      C1716   1.408       .  A
C1715     Br1722   1.878       .  S
C1716      C1717   1.454       .  A
C1716      H1721   1.047       .  S
C1717      C1718   1.455       .  A
C1718     Br1719   1.903       .  S
C1723      C1724   1.375       .  A
C1723      C1728   1.391       .  A
C1723      H1730   1.098       .  S
C1724      C1725   1.404       .  A
C1725      C1726   1.450       .  A
C1725     Br1732   1.876       .  S
C1726      C1727   1.455       .  A
C1726      H1731   1.080       .  S
C1727      C1728   1.473       .  A
C1728     Br1729   1.982       .  S
C1733      C1734   1.391       .  A
C1733      C1738   1.421       .  A
C1733      H1740   1.071       .  S
C1734      C1735   1.395       .  A
C1735      C1736   1.430       .  A
C1735     Br1742   1.923       .  S
C1736      C1737   1.449       .  A
C1736      H1741   1.007       .  S
C1737      C1738   1.463       .  A
C1738     Br1739   1.901       .  S
C1743      C1744   1.382       .  A
C1743      C1748   1.433       .  A
C1743      H1750   1.085       .  S
C1744      C1745   1.387       .  A
C1745      C1746   1.424       .  A
C1745     Br1752   1.913       .  S
C1746      C1747   1.410       .  A
C1746      H1751   1.051       .  S
C1747      C1748   1.501       .  A
C1748     Br1749   1.940       .  S
C1753      C1754   1.424       .  A
C1753      C1758   1.425       .  A
C1753      H1760   1.054       .  S
C1754      C1755   1.501       .  A
C1755      C1756   1.412       .  A
C1755     Br1762   1.918       .  S
C1756      C1757   1.370       .  A
C1756      H1761   1.086       .  S
C1757      C1758   1.394       .  A
C1758     Br1759   1.907       .  S
C1763      C1764   1.464       .  A
C1763      C1768   1.412       .  A
C1763      H1770   1.068       .  S
C1764      C1765   1.460       .  A
C1765      C1766   1.431       .  A
C1765     Br1772   1.860       .  S
C1766      C1767   1.380       .  A
C1766      H1771   1.075       .  S
C1767      C1768   1.383       .  A
C1768     Br1769   1.918       .  S
C1773      C1774   1.382       .  A
C1773      C1778   1.414       .  A
C1773      H1780   1.085       .  S
C1774      C1775   1.401       .  A
C1775      C1776   1.414       .  A
C1775     Br1782   1.897       .  S
C1776      C1777   1.420       .  A
C1776      H1781   1.052       .  S
C1777      C1778   1.504       .  A
C1783      C1784   1.423       .  A
C1783      C1788   1.398       .  A
C1783      H1790   1.026       .  S
C1784      C1785   1.474       .  A
C1785      C1786   1.425       .  A
C1785     Br1792   1.938       .  S
C1786      C1787   1.386       .  A
C1786      H1791   1.084       .  S
C1787      C1788   1.381       .  A
C1788     Br1789   1.903       .  S
