geometry optimzed in LAMMPS
_audit_creation_date              2020-11-30 
_audit_creation_method            'lammps2cif' 
_symmetry_space_group_name_H-M    'P1' 
_symmetry_Int_Tables_number       1 
_symmetry_cell_setting            triclinic 
loop_ 
_symmetry_equiv_pos_as_xyz 
  x,y,z 
_cell_length_a                    46.242386925847406 
_cell_length_b                    46.25366670199354 
_cell_length_c                    46.23938888986632 
_cell_angle_alpha                 89.95545474560294 
_cell_angle_beta                  89.94022510067359 
_cell_angle_gamma                 89.96318655449434 
loop_ 
_atom_site_label 
_atom_site_type_symbol 
_atom_site_fract_x 
_atom_site_fract_y 
_atom_site_fract_z 
_atom_site_charge 
O1          O  0.04700452  0.54029263  0.51839474    -0.71860
O2          O  0.04691306  0.46115311  0.48199945    -0.72840
O3          O  0.04599370  0.48241330  0.53990374    -0.61460
O4          O  0.04805570  0.51904847  0.46053376    -0.69870
O5          O  0.09598160  0.51905594  0.46244641    -0.69420
O6          O  0.09404041  0.48074234  0.53957329    -0.60680
O7          O  0.09498810  0.46183221  0.48173728    -0.73180
O8          O  0.09501900  0.53862484  0.52035319    -0.71960
Cu9        Cu  0.04519143  0.50077838  0.50020787     1.04560
Cu10       Cu  0.09658948  0.50010113  0.50111834     1.04330
C11         C  0.07120543  0.55163151  0.52531782     0.94340
C12         C  0.07114375  0.44944344  0.47565713     0.93480
C13         C  0.06991786  0.47540924  0.55185108     0.85620
C14         C  0.07257238  0.52461429  0.44893830     0.91900
O15         O  0.46694321  0.88743532  0.54032654    -0.71860
O16         O  0.49885488  0.88815139  0.46017887    -0.72840
O17         O  0.52293076  0.88849753  0.51622725    -0.61460
O18         O  0.44282678  0.88704220  0.48425205    -0.69870
O19         O  0.44263202  0.93489819  0.48102716    -0.69420
O20         O  0.52091615  0.93638378  0.51964381    -0.60680
O21         O  0.50116411  0.93613730  0.46119189    -0.73180
O22         O  0.46248284  0.93525981  0.53930923    -0.71960
Cu23       Cu  0.48291805  0.88618172  0.50022627     1.04560
Cu24       Cu  0.48177374  0.93747359  0.50026965     1.04330
C25         C  0.45914590  0.91106050  0.55224649     0.94340
C26         C  0.50562714  0.91210794  0.44830624     0.93480
C27         C  0.53426654  0.91249840  0.52364653     0.85620
C28         C  0.43017576  0.91052357  0.47710943     0.91900
O29         O  0.87111801  0.54053670  0.48090665    -0.71860
O30         O  0.86816075  0.46320427  0.51774677    -0.72840
O31         O  0.86969173  0.51997857  0.53855732    -0.61460
O32         O  0.86963391  0.48307080  0.46076760    -0.69870
O33         O  0.91768899  0.48183210  0.46057977    -0.69420
O34         O  0.91773163  0.51905691  0.53944863    -0.60680
O35         O  0.91593412  0.46071599  0.51864092    -0.73180
O36         O  0.91919856  0.53980452  0.48149393    -0.71960
Cu37       Cu  0.86810090  0.50184700  0.49947130     1.04560
Cu38       Cu  0.91945395  0.50033061  0.50008335     1.04330
C39         C  0.89537427  0.55230818  0.47517849     0.94340
C40         C  0.89120778  0.44941367  0.52392704     0.93480
C41         C  0.89354075  0.52514640  0.55138431     0.85620
C42         C  0.89343435  0.47621471  0.44861460     0.91900
O43         O  0.46313125  0.53919280  0.06229129    -0.71860
O44         O  0.50104052  0.46037519  0.06609720    -0.72840
O45         O  0.44292277  0.48079507  0.06349772    -0.61460
O46         O  0.52163762  0.51852516  0.06486574    -0.69870
O47         O  0.51889374  0.52067462  0.11279224    -0.69420
O48         O  0.44166768  0.48285446  0.11152056    -0.60680
O49         O  0.49944638  0.46309457  0.11397528    -0.73180
O50         O  0.46180581  0.54040945  0.11033120    -0.71960
Cu51       Cu  0.48221376  0.49967171  0.06237356     1.04560
Cu52       Cu  0.48036328  0.50174673  0.11371189     1.04330
C53         C  0.45669098  0.55210754  0.08590239     0.94340
C54         C  0.50658884  0.44960494  0.09096750     0.93480
C55         C  0.43013433  0.47582347  0.08750158     0.85620
C56         C  0.53238808  0.52578886  0.08927768     0.91900
N57         N  0.18898098  0.39204176  0.09450423    -0.26210
N58         N  0.17445662  0.37499740  0.11230557    -0.34060
C59         C  0.14636094  0.37547453  0.10489540     0.02140
C60         C  0.14316084  0.39345447  0.08116988     0.08160
C61         C  0.17062511  0.40349389  0.07506860    -0.04940
H62         H  0.12954757  0.36332825  0.11575252     0.08830
H63         H  0.17675573  0.41847822  0.05814898     0.10030
Cu64       Cu  0.19355317  0.35093660  0.14515755     0.44170
Cu65       Cu  0.23279906  0.39979315  0.09802501     0.41990
Cu66       Cu  0.27148749  0.35467627  0.14908950     0.43880
N67         N  0.21816568  0.32622663  0.17355566    -0.33590
N68         N  0.24675168  0.32671009  0.17408317    -0.27850
C69         C  0.25620575  0.30730530  0.19361166    -0.03950
C70         C  0.23242691  0.29421258  0.20626531     0.08270
C71         C  0.20866868  0.30681799  0.19307415     0.02070
H72         H  0.27873848  0.30339773  0.19859527     0.09720
H73         H  0.18612751  0.30183310  0.19695358     0.08800
N74         N  0.29084080  0.38660482  0.12409897    -0.35040
N75         N  0.27654533  0.40356129  0.10605425    -0.27220
C76         C  0.29503717  0.42250613  0.09402619    -0.02460
C77         C  0.32237116  0.41699710  0.10477508     0.06150
C78         C  0.31890954  0.39412019  0.12378920     0.04240
H79         H  0.28906267  0.43874915  0.07825855     0.09350
H80         H  0.33549191  0.38396433  0.13681275     0.08180
N81         N  0.08772282  0.40308281  0.70611223    -0.26210
N82         N  0.10727112  0.38745063  0.69232448    -0.34060
C83         C  0.10747492  0.39515648  0.66432006     0.02140
C84         C  0.08695167  0.41662535  0.66013333     0.08160
C85         C  0.07493553  0.42115512  0.68722630    -0.04940
H86         H  0.12189230  0.38601013  0.64831113     0.08830
H87         H  0.05786286  0.43615180  0.69283362     0.10030
Cu88       Cu  0.13291888  0.35634322  0.71202117     0.44170
Cu89       Cu  0.07978346  0.39921282  0.74998311     0.41990
Cu90       Cu  0.12928170  0.35271884  0.78990717     0.43880
N91         N  0.15727593  0.32772574  0.73653497    -0.33590
N92         N  0.15684056  0.32717799  0.76512182    -0.27850
C93         C  0.17588852  0.30724214  0.77445836    -0.03950
C94         C  0.18865128  0.29437412  0.75058597     0.08270
C95         C  0.17624466  0.30785435  0.72691437     0.02070
H96         H  0.17983557  0.30218649  0.79697090     0.09720
H97         H  0.18110840  0.30397036  0.70434572     0.08800
N98         N  0.09687215  0.37741876  0.80903757    -0.35040
N99         N  0.07815743  0.39329087  0.79431133    -0.27220
C100        C  0.05887431  0.40488653  0.81274811    -0.02460
C101        C  0.06608803  0.39628556  0.84040364     0.06150
C102        C  0.09022390  0.37890036  0.83733627     0.04240
H103        H  0.04096382  0.41859745  0.80647096     0.09350
H104        H  0.10156442  0.36745574  0.85431527     0.08180
N105        N  0.87727622  0.40234777  0.29469367    -0.26210
N106        N  0.85592126  0.38849354  0.30766040    -0.34060
C107        C  0.85464898  0.39690206  0.33539256     0.02140
C108        C  0.87653760  0.41678465  0.34046306     0.08160
C109        C  0.89037759  0.41972425  0.31397278    -0.04940
H110        H  0.83856870  0.38920795  0.35053658     0.08830
H111        H  0.90886885  0.43313879  0.30897755     0.10030
Cu112      Cu  0.82977058  0.35794144  0.28788074     0.44170
Cu113      Cu  0.88684715  0.39761657  0.25122194     0.41990
Cu114      Cu  0.83845899  0.34968091  0.21146240     0.43880
N115        N  0.80647195  0.32815895  0.26383526    -0.33590
N116        N  0.80884463  0.32594712  0.23544127    -0.27850
C117        C  0.79034519  0.30562026  0.22597411    -0.03950
C118        C  0.77596905  0.29416541  0.24962939     0.08270
C119        C  0.78680828  0.30889804  0.27329811     0.02070
H120        H  0.78796621  0.29923457  0.20358634     0.09720
H121        H  0.78051587  0.30617383  0.29568740     0.08800
N122        N  0.87127762  0.37384272  0.19262858    -0.35040
N123        N  0.88909403  0.39091685  0.20702324    -0.27220
C124        C  0.90770534  0.40317564  0.18830890    -0.02460
C125        C  0.90122978  0.39344967  0.16075663     0.06150
C126        C  0.87806859  0.37481894  0.16439878     0.04240
H127        H  0.92434366  0.41846250  0.19433428     0.09350
H128        H  0.86712371  0.36249795  0.14781762     0.08180
O129        O  0.00241706  0.43615750  0.96115504    -0.71860
O130        O  0.96408811  0.43621030  0.03979925    -0.72840
O131        O  0.02228233  0.43566700  0.01941970    -0.61460
O132        O  0.94378669  0.43707508  0.98143319    -0.69870
O133        O  0.94316755  0.38902387  0.98191063    -0.69420
O134        O  0.02189769  0.38764525  0.01758182    -0.60680
O135        O  0.96447325  0.38815940  0.03924925    -0.73180
O136        O  0.00003229  0.38818007  0.96055332    -0.71960
Cu137      Cu  0.98315222  0.43806117  0.00046700     1.04560
Cu138      Cu  0.98237604  0.38665471  0.99987027     1.04330
C139        C  0.00705071  0.41198321  0.94852750     0.94340
C140        C  0.95838574  0.41195650  0.05179432     0.93480
C141        C  0.03443054  0.41131819  0.02418176     0.85620
C142        C  0.93128012  0.41312926  0.97565680     0.91900
N143        N  0.68734555  0.59870836  0.10432491    -0.26210
N144        N  0.67509290  0.61147760  0.12670851    -0.34060
C145        C  0.64758674  0.60265243  0.12878765     0.02140
C146        C  0.64171854  0.58375527  0.10620334     0.08160
C147        C  0.66771278  0.58172382  0.09121021    -0.04940
H148        H  0.63321976  0.60951838  0.14589798     0.08830
H149        H  0.67216767  0.56921956  0.07196722     0.10030
Cu150      Cu  0.69524232  0.64171051  0.15275867     0.44170
Cu151      Cu  0.73057010  0.60413795  0.09423066     0.41990
Cu152      Cu  0.77159628  0.64993373  0.14444435     0.43880
N153        N  0.71885819  0.67215907  0.17542980    -0.33590
N154        N  0.74725724  0.67448546  0.17327133    -0.27850
C155        C  0.75638444  0.69515007  0.19158508    -0.03950
C156        C  0.73248374  0.70666917  0.20555958     0.08270
C157        C  0.70905139  0.69163299  0.19470010     0.02070
H158        H  0.77873299  0.70152638  0.19432390     0.09720
H159        H  0.68661256  0.69410593  0.20091689     0.08800
N160        N  0.78996220  0.62484877  0.11188468    -0.35040
N161        N  0.77501272  0.60908897  0.09329396    -0.27220
C162        C  0.79337323  0.59611821  0.07486114    -0.02460
C163        C  0.82126079  0.60386379  0.08227055     0.06150
C164        C  0.81828297  0.62211721  0.10581547     0.04240
H165        H  0.78685489  0.58170674  0.05763382     0.09350
H166        H  0.83540522  0.63305853  0.11738996     0.08180
N167        N  0.87647562  0.59604485  0.70565722    -0.26210
N168        N  0.85937601  0.61377623  0.69108695    -0.34060
C169        C  0.85991657  0.60633146  0.66297720     0.02140
C170        C  0.87798851  0.58272877  0.65992081     0.08160
C171        C  0.88801003  0.57663821  0.68733240    -0.04940
H172        H  0.84761741  0.61693405  0.64612125     0.08830
H173        H  0.90273922  0.55951650  0.69350190     0.10030
Cu174      Cu  0.83476184  0.64625210  0.71016020     0.44170
Cu175      Cu  0.88413324  0.59920434  0.74954046     0.41990
Cu176      Cu  0.84001286  0.65135923  0.78773634     0.43880
N177        N  0.80961756  0.67422479  0.73484921    -0.33590
N178        N  0.81067068  0.67518252  0.76340656    -0.27850
C179        C  0.79089771  0.69429150  0.77300095    -0.03950
C180        C  0.77698639  0.70624227  0.74932117     0.08270
C181        C  0.78948973  0.69306145  0.72549234     0.02070
H182        H  0.78736898  0.69957114  0.79553179     0.09720
H183        H  0.78404063  0.69656924  0.70300126     0.08800
N184        N  0.87224123  0.62669187  0.80706830    -0.35040
N185        N  0.88851883  0.60776678  0.79314274    -0.27220
C186        C  0.90704532  0.59542471  0.81189134    -0.02460
C187        C  0.90204153  0.60699474  0.83903250     0.06150
C188        C  0.87991430  0.62683959  0.83506275     0.04240
H189        H  0.92243617  0.57870741  0.80626212     0.09350
H190        H  0.87007745  0.64050403  0.85131617     0.08180
N191        N  0.08602097  0.59815758  0.29464877    -0.26210
N192        N  0.10665763  0.61254217  0.30822882    -0.34060
C193        C  0.10780659  0.60353550  0.33584638     0.02140
C194        C  0.08664167  0.58286186  0.33986196     0.08160
C195        C  0.07320669  0.57991304  0.31338249    -0.04940
H196        H  0.12308985  0.61127996  0.35176728     0.08830
H197        H  0.05609046  0.56495156  0.30787536     0.10030
Cu198      Cu  0.13275941  0.64344912  0.28872116     0.44170
Cu199      Cu  0.07798196  0.60220530  0.25078890     0.41990
Cu200      Cu  0.12661955  0.64982320  0.21132159     0.43880
N201        N  0.15697545  0.67235039  0.26431314    -0.33590
N202        N  0.15556057  0.67386146  0.23579713    -0.27850
C203        C  0.17467668  0.69367548  0.22636339    -0.03950
C204        C  0.18848727  0.70550933  0.25012453     0.08270
C205        C  0.17664197  0.69153986  0.27382873     0.02070
H206        H  0.17787374  0.69944166  0.20389718     0.09720
H207        H  0.18227124  0.69471237  0.29632076     0.08800
N208        N  0.09450449  0.62510304  0.19201884    -0.35040
N209        N  0.07667030  0.60799031  0.20639328    -0.27220
C210        C  0.05839478  0.59542638  0.18762150    -0.02460
C211        C  0.06500526  0.60504990  0.16001408     0.06150
C212        C  0.08801025  0.62388756  0.16371837     0.04240
H213        H  0.04172028  0.58018299  0.19370717     0.09350
H214        H  0.09888702  0.63636296  0.14716655     0.08180
O215        O  0.96399709  0.56366385  0.96031670    -0.71860
O216        O  0.00139726  0.56334267  0.03925866    -0.72840
O217        O  0.94294781  0.56100206  0.01885401    -0.61460
O218        O  0.02198032  0.56624660  0.98112427    -0.69870
O219        O  0.01843911  0.61395106  0.98281771    -0.69420
O220        O  0.94089992  0.60899355  0.01987268    -0.60680
O221        O  0.99848560  0.61129482  0.04028261    -0.73180
O222        O  0.96116147  0.61158014  0.96234818    -0.71960
Cu223      Cu  0.98261988  0.56176105  0.99986403     1.04560
Cu224      Cu  0.97964244  0.61300601  0.00139588     1.04330
C225        C  0.95689289  0.58785637  0.94896466     0.94340
C226        C  0.00611120  0.58745060  0.05188662     0.93480
C227        C  0.92966599  0.58441915  0.02530047     0.85620
C228        C  0.03254467  0.59127644  0.97585314     0.91900
N229        N  0.68858022  0.40265262  0.89528592    -0.26210
N230        N  0.67586461  0.38914745  0.87361937    -0.34060
C231        C  0.64813981  0.39749743  0.87227718     0.02140
C232        C  0.64271293  0.41688318  0.89455555     0.08160
C233        C  0.66908809  0.41966482  0.90862068    -0.04940
H234        H  0.63327904  0.39000829  0.85589517     0.08830
H235        H  0.67388322  0.43266898  0.92743086     0.10030
Cu236      Cu  0.69570889  0.35865847  0.84750608     0.44170
Cu237      Cu  0.73200214  0.39786887  0.90480053     0.41990
Cu238      Cu  0.77154758  0.34799153  0.85777854     0.43880
N239        N  0.71926699  0.32814778  0.82471787    -0.33590
N240        N  0.74750899  0.32494122  0.82765596    -0.27850
C241        C  0.75668810  0.30444797  0.80914524    -0.03950
C242        C  0.73295746  0.29393726  0.79423617     0.08270
C243        C  0.70958296  0.30938356  0.80473646     0.02070
H244        H  0.77891106  0.29738876  0.80702771     0.09720
H245        H  0.68726887  0.30755402  0.79792749     0.08800
N246        N  0.79040907  0.37291409  0.89004271    -0.35040
N247        N  0.77613852  0.39095265  0.90703039    -0.27220
C248        C  0.79492606  0.40402739  0.92492744    -0.02460
C249        C  0.82244384  0.39376839  0.91897732     0.06150
C250        C  0.81863000  0.37395907  0.89680518     0.04240
H251        H  0.78893269  0.42027735  0.94064993     0.09350
H252        H  0.83508112  0.36095367  0.88641957     0.08180
N253        N  0.18845775  0.60708995  0.90482493    -0.26210
N254        N  0.17464216  0.62352335  0.88594218    -0.34060
C255        C  0.14631967  0.62337970  0.89229517     0.02140
C256        C  0.14197206  0.60609401  0.91638350     0.08160
C257        C  0.16920188  0.59595148  0.92364238    -0.04940
H258        H  0.13014902  0.63545006  0.88045226     0.08830
H259        H  0.17481803  0.58247670  0.94194549     0.10030
Cu260      Cu  0.19450208  0.64749707  0.85355957     0.44170
Cu261      Cu  0.23293975  0.60194325  0.90487008     0.41990
Cu262      Cu  0.27151307  0.64414698  0.85009467     0.43880
N263        N  0.21873228  0.67284372  0.82549313    -0.33590
N264        N  0.24729754  0.67248648  0.82499620    -0.27850
C265        C  0.25670445  0.69231716  0.80583626    -0.03950
C266        C  0.23285556  0.70553906  0.79339153     0.08270
C267        C  0.20915397  0.69255533  0.80634754     0.02070
H268        H  0.27922616  0.69643981  0.80096213     0.09720
H269        H  0.18658389  0.69746903  0.80255543     0.08800
N270        N  0.29066821  0.61355939  0.87689177    -0.35040
N271        N  0.27700439  0.59904853  0.89745274    -0.27220
C272        C  0.29573628  0.58087941  0.91035920    -0.02460
C273        C  0.32228710  0.58391810  0.89702683     0.06150
C274        C  0.31830097  0.60464197  0.87586676     0.04240
H275        H  0.29007964  0.56559777  0.92717555     0.09350
H276        H  0.33420474  0.61228246  0.86046368     0.08180
O277        O  0.52215980  0.48206350  0.93563505    -0.71860
O278        O  0.44271500  0.51886649  0.93441135    -0.72840
O279        O  0.46401234  0.46093067  0.93620357    -0.61460
O280        O  0.50097933  0.53990569  0.93416556    -0.69870
O281        O  0.50033753  0.53842247  0.88619256    -0.69420
O282        O  0.46434979  0.46002395  0.88813998    -0.60680
O283        O  0.44352855  0.51696071  0.88656824    -0.73180
O284        O  0.52127916  0.48085130  0.88759255    -0.71960
Cu285      Cu  0.48249199  0.50052003  0.93691042     1.04560
Cu286      Cu  0.48244789  0.49907636  0.88557112     1.04330
C287        C  0.53383109  0.47527537  0.91148934     0.94340
C288        C  0.43050576  0.52347380  0.90999031     0.93480
C289        C  0.45829373  0.44824222  0.91233736     0.85620
C290        C  0.50629569  0.55162707  0.90968386     0.91900
N291        N  0.57626472  0.29323350  0.10832953    -0.26210
N292        N  0.59684467  0.30707476  0.12246819    -0.34060
C293        C  0.59152566  0.33556039  0.12140608     0.02140
C294        C  0.56606269  0.34018797  0.10622105     0.08160
C295        C  0.55711072  0.31267611  0.09814617    -0.04940
H296        H  0.60539061  0.35161292  0.13126880     0.08830
H297        H  0.53767256  0.30696702  0.08645930     0.10030
Cu298      Cu  0.63003020  0.28728724  0.14524284     0.44170
Cu299      Cu  0.57566461  0.24858228  0.10344947     0.41990
Cu300      Cu  0.63284170  0.21052058  0.14268930     0.43880
N301        N  0.65766023  0.26316944  0.17105182    -0.33590
N302        N  0.65786438  0.23461584  0.17099795    -0.27850
C303        C  0.67665105  0.22518533  0.19112836    -0.03950
C304        C  0.68913729  0.24902089  0.20425349     0.08270
C305        C  0.67660685  0.27273794  0.19090615     0.02070
H306        H  0.68123564  0.20265850  0.19552258     0.09720
H307        H  0.68053103  0.29530360  0.19567093     0.08800
N308        N  0.60620223  0.19153859  0.11202905    -0.35040
N309        N  0.58469312  0.20483582  0.09861201    -0.27220
C310        C  0.57201712  0.18613056  0.08025796    -0.02460
C311        C  0.58653940  0.16006196  0.08203370     0.06150
C312        C  0.60808484  0.16427014  0.10223333     0.04240
H313        H  0.55431366  0.19144612  0.06590645     0.09350
H314        H  0.62411543  0.14868207  0.10917558     0.08180
N315        N  0.58064590  0.70507376  0.89575796    -0.26210
N316        N  0.59578188  0.69117990  0.87584137    -0.34060
C317        C  0.58697565  0.66348755  0.87498270     0.02140
C318        C  0.56549969  0.65987567  0.89545361     0.08160
C319        C  0.56192564  0.68659527  0.90820561    -0.04940
H320        H  0.59531273  0.64728899  0.86029082     0.08830
H321        H  0.54644039  0.69236391  0.92480356     0.10030
Cu322      Cu  0.62701349  0.71072918  0.85005876     0.44170
Cu323      Cu  0.58478546  0.74885147  0.90374980     0.41990
Cu324      Cu  0.63111553  0.78877720  0.85452108     0.43880
N325        N  0.65538301  0.73554263  0.82553006    -0.33590
N326        N  0.65602745  0.76411880  0.82628507    -0.27850
C327        C  0.67569626  0.77364161  0.80703289    -0.03950
C328        C  0.68833274  0.74992189  0.79380058     0.08270
C329        C  0.67497464  0.72612875  0.80614426     0.02070
H330        H  0.68078766  0.79617774  0.80331615     0.09720
H331        H  0.67879344  0.70362344  0.80099945     0.08800
N332        N  0.60637654  0.80792396  0.88688649    -0.35040
N333        N  0.59012675  0.79320329  0.90525546    -0.27220
C334        C  0.57773599  0.81165361  0.92399924    -0.02460
C335        C  0.58640965  0.83941195  0.91701984     0.06150
C336        C  0.60457326  0.83621267  0.89337561     0.04240
H337        H  0.56322076  0.80528866  0.94123961     0.09350
H338        H  0.61618107  0.85313030  0.88210785     0.08180
N339        N  0.58667861  0.90323782  0.20653388    -0.26210
N340        N  0.60816656  0.88967156  0.19349640    -0.34060
C341        C  0.60923399  0.89816790  0.16578331     0.02140
C342        C  0.58704969  0.91778608  0.16083656     0.08160
C343        C  0.57330696  0.92058196  0.18735840    -0.04940
H344        H  0.62520900  0.89054680  0.15048526     0.08830
H345        H  0.55458471  0.93370595  0.19234451     0.10030
Cu346      Cu  0.63438375  0.85909006  0.21322203     0.44170
Cu347      Cu  0.57723475  0.89758941  0.24982440     0.41990
Cu348      Cu  0.62798622  0.85227056  0.29029879     0.43880
N349        N  0.65779787  0.82921463  0.23711338    -0.33590
N350        N  0.65637859  0.82747265  0.26561547    -0.27850
C351        C  0.67488242  0.80691357  0.27471813    -0.03950
C352        C  0.68825545  0.79485550  0.25073932     0.08270
C353        C  0.67680895  0.80948129  0.22726866     0.02070
H354        H  0.67804668  0.80087464  0.29711340     0.09720
H355        H  0.68236186  0.80645974  0.20472573     0.08800
N356        N  0.59470584  0.87625249  0.30896011    -0.35040
N357        N  0.57561314  0.89149568  0.29404877    -0.27220
C358        C  0.55613942  0.90298828  0.31232671    -0.02460
C359        C  0.56353818  0.89495515  0.34009322     0.06150
C360        C  0.58806876  0.87805569  0.33723746     0.04240
H361        H  0.53814295  0.91650652  0.30587845     0.09350
H362        H  0.59982279  0.86730493  0.35438729     0.08180
O363        O  0.59645211  0.03680727  0.01846685    -0.71860
O364        O  0.59345960  0.95844568  0.98243317    -0.72840
O365        O  0.59675458  0.01546385  0.96169749    -0.61460
O366        O  0.59348586  0.97943772  0.03932882    -0.69870
O367        O  0.54548599  0.98183459  0.03937315    -0.69420
O368        O  0.54905779  0.01866528  0.95979929    -0.60680
O369        O  0.54547526  0.96069034  0.98093537    -0.73180
O370        O  0.54861800  0.03970733  0.01785610    -0.71960
Cu371      Cu  0.59656493  0.99747367  0.00056374     1.04560
Cu372      Cu  0.54534082  0.00028909  0.99950048     1.04330
C373        C  0.57323164  0.05084943  0.02367762     0.94340
C374        C  0.56913535  0.94735281  0.97572660     0.93480
C375        C  0.57388630  0.02303712  0.94831160     0.85620
C376        C  0.56926362  0.97462239  0.05155515     0.91900
N377        N  0.37615761  0.79409744  0.09608411    -0.26210
N378        N  0.35881872  0.80863443  0.11357175    -0.34060
C379        C  0.35959989  0.83676698  0.10626421     0.02140
C380        C  0.37811259  0.83995671  0.08292358     0.08160
C381        C  0.38811115  0.81245276  0.07695157    -0.04940
H382        H  0.34721792  0.85358511  0.11684080     0.08830
H383        H  0.40331579  0.80626647  0.06024640     0.10030
Cu384      Cu  0.33396495  0.78926177  0.14567312     0.44170
Cu385      Cu  0.38336712  0.75019621  0.09943054     0.41990
Cu386      Cu  0.33623296  0.71075333  0.14779352     0.43880
N387        N  0.30881409  0.76429544  0.17337588    -0.33590
N388        N  0.30877376  0.73569565  0.17328436    -0.27850
C389        C  0.28924475  0.72620998  0.19268778    -0.03950
C390        C  0.27661191  0.74994853  0.20588309     0.08270
C391        C  0.28962132  0.77372877  0.19314482     0.02070
H392        H  0.28494758  0.70365857  0.19722676     0.09720
H393        H  0.28507989  0.79626546  0.19751511     0.08800
N394        N  0.36835308  0.69145446  0.12285449    -0.35040
N395        N  0.38627925  0.70618106  0.10611851    -0.27220
C396        C  0.40544581  0.68790456  0.09412229    -0.02460
C397        C  0.39899543  0.66027493  0.10338761     0.06150
C398        C  0.37537340  0.66325189  0.12155212     0.04240
H399        H  0.42253812  0.69423539  0.07941380     0.09350
H400        H  0.36447249  0.64625234  0.13339427     0.08180
N401        N  0.38996786  0.29306340  0.89071350    -0.26210
N402        N  0.37151134  0.30764440  0.87445526    -0.34060
C403        C  0.37776583  0.33596525  0.87618486     0.02140
C404        C  0.40126477  0.33945180  0.89443981     0.08160
C405        C  0.40844314  0.31171820  0.90317718    -0.04940
H406        H  0.36632073  0.35271959  0.86452201     0.08830
H407        H  0.42555926  0.30549216  0.91786214     0.10030
Cu408      Cu  0.33881648  0.28866706  0.85017685     0.44170
Cu409      Cu  0.38884187  0.24861301  0.89602512     0.41990
Cu410      Cu  0.33223090  0.21148759  0.85659528     0.43880
N411        N  0.30972977  0.26435889  0.82608282    -0.33590
N412        N  0.30820513  0.23585998  0.82759688    -0.27850
C413        C  0.28861557  0.22637146  0.80831489    -0.03950
C414        C  0.27692753  0.25008342  0.79427345     0.08270
C415        C  0.29073616  0.27382090  0.80617049     0.02070
H416        H  0.28291689  0.20390334  0.80514481     0.09720
H417        H  0.28761433  0.29628297  0.80038249     0.08800
N418        N  0.35839715  0.19186910  0.88729784    -0.35040
N419        N  0.37985885  0.20502163  0.90084032    -0.27220
C420        C  0.39252022  0.18622601  0.91912147    -0.02460
C421        C  0.37803692  0.16019581  0.91716930     0.06150
C422        C  0.35650089  0.16453197  0.89694758     0.04240
H423        H  0.41018222  0.19145486  0.93353951     0.09350
H424        H  0.34049458  0.14900061  0.88990215     0.08180
N425        N  0.37775655  0.90183242  0.79437826    -0.26210
N426        N  0.35553477  0.88886906  0.80674275    -0.34060
C427        C  0.35353071  0.89763670  0.83428504     0.02140
C428        C  0.37593057  0.91676659  0.83999836     0.08160
C429        C  0.39078137  0.91896950  0.81394755    -0.04940
H430        H  0.33661435  0.89062364  0.84882313     0.08830
H431        H  0.40988145  0.93168667  0.80945782     0.10030
Cu432      Cu  0.32942407  0.85874119  0.78653200     0.44170
Cu433      Cu  0.38792962  0.89620173  0.75114926     0.41990
Cu434      Cu  0.33634234  0.85213330  0.70985708     0.43880
N435        N  0.30623465  0.82891124  0.76265559    -0.33590
N436        N  0.30779872  0.82722009  0.73417162    -0.27850
C437        C  0.28940096  0.80664873  0.72498410    -0.03950
C438        C  0.27598878  0.79455106  0.74892558     0.08270
C439        C  0.28726406  0.80914391  0.77243903     0.02070
H440        H  0.28633573  0.80063150  0.70257883     0.09720
H441        H  0.28161966  0.80608595  0.79495829     0.08800
N442        N  0.36989341  0.87601919  0.69166501    -0.35040
N443        N  0.38927388  0.89070900  0.70673814    -0.27220
C444        C  0.40890589  0.90206690  0.68852087    -0.02460
C445        C  0.40126720  0.89453767  0.66069498     0.06150
C446        C  0.37649400  0.87806108  0.66339773     0.04240
H447        H  0.42724836  0.91502987  0.69505519     0.09350
H448        H  0.36459433  0.86766448  0.64615448     0.08180
O449        O  0.37104824  0.96023211  0.01995660    -0.71860
O450        O  0.36834070  0.03788750  0.98263471    -0.72840
O451        O  0.36895748  0.98008177  0.96268145    -0.61460
O452        O  0.37036392  0.01804120  0.03985804    -0.69870
O453        O  0.41843377  0.01864142  0.03925944    -0.69420
O454        O  0.41690213  0.98194164  0.96003774    -0.60680
O455        O  0.41620931  0.03981252  0.98140484    -0.73180
O456        O  0.41908894  0.96060580  0.01818219    -0.71960
Cu457      Cu  0.36810565  0.99901527  0.00130933     1.04560
Cu458      Cu  0.41945492  0.00025793  0.99965155     1.04330
C459        C  0.39533460  0.94814127  0.02489932     0.94340
C460        C  0.39159165  0.05141371  0.97641466     0.93480
C461        C  0.39247469  0.97488421  0.94921323     0.85620
C462        C  0.39441436  0.02453997  0.05162830     0.91900
N463        N  0.68803068  0.89399466  0.59563337    -0.26210
N464        N  0.67335196  0.87728689  0.61362950    -0.34060
C465        C  0.64518085  0.87823684  0.60643388     0.02140
C466        C  0.64214641  0.89611270  0.58260366     0.08160
C467        C  0.66973788  0.90561178  0.57624190    -0.04940
H468        H  0.62825652  0.86623678  0.61728286     0.08830
H469        H  0.67604359  0.92010802  0.55896512     0.10030
Cu470      Cu  0.69270357  0.85248337  0.64583916     0.44170
Cu471      Cu  0.73211722  0.90066294  0.59845310     0.41990
Cu472      Cu  0.77131476  0.85343730  0.64677758     0.43880
N473        N  0.71772450  0.82687082  0.67313740    -0.33590
N474        N  0.74632422  0.82641919  0.67261803    -0.27850
C475        C  0.75583564  0.80670590  0.69180129    -0.03950
C476        C  0.73212870  0.79432413  0.70529451     0.08270
C477        C  0.70832840  0.80771261  0.69296004     0.02070
H478        H  0.77840418  0.80209214  0.69596031     0.09720
H479        H  0.68578988  0.80344265  0.69762906     0.08800
N480        N  0.79085392  0.88518828  0.62164773    -0.35040
N481        N  0.77624953  0.90320208  0.60490720    -0.27220
C482        C  0.79464985  0.92240375  0.59314992    -0.02460
C483        C  0.82219993  0.91582658  0.60256097     0.06150
C484        C  0.81907778  0.89215724  0.62058024     0.04240
H485        H  0.78842860  0.93979679  0.57876287     0.09350
H486        H  0.83594530  0.88135967  0.63269482     0.08180
N487        N  0.87854513  0.29488816  0.59760863    -0.26210
N488        N  0.85908879  0.30843771  0.61363394    -0.34060
C489        C  0.85803248  0.33629116  0.60556436     0.02140
C490        C  0.87793439  0.34053403  0.58364848     0.08160
C491        C  0.89067407  0.31388983  0.57919038    -0.04940
H492        H  0.84344815  0.35219485  0.61465132     0.08830
H493        H  0.90658008  0.30840260  0.56289744     0.10030
Cu494      Cu  0.83364303  0.28894214  0.64503278     0.44170
Cu495      Cu  0.88597062  0.25089291  0.59970391     0.41990
Cu496      Cu  0.84245760  0.21300336  0.65346207     0.43880
N497        N  0.80925128  0.26474679  0.67386991    -0.33590
N498        N  0.81170599  0.23638288  0.67615107    -0.27850
C499        C  0.79221922  0.22665604  0.69547715    -0.03950
C500        C  0.77711146  0.25015386  0.70620975     0.08270
C501        C  0.78855207  0.27396696  0.69212217     0.02070
H502        H  0.78972526  0.20424808  0.70175653     0.09720
H503        H  0.78204722  0.29630508  0.69466937     0.08800
N504        N  0.87359608  0.19367244  0.62767630    -0.35040
N505        N  0.88858827  0.20696357  0.60732395    -0.27220
C506        C  0.90541262  0.18754480  0.59367292    -0.02460
C507        C  0.90101710  0.16059597  0.60618803     0.06150
C508        C  0.88085852  0.16563269  0.62791355     0.04240
H509        H  0.91939889  0.19285001  0.57569285     0.09350
H510        H  0.87209015  0.15032122  0.64323593     0.08180
N511        N  0.09012081  0.70687449  0.59431439    -0.26210
N512        N  0.10846981  0.69297634  0.61122450    -0.34060
C513        C  0.10836327  0.66484395  0.60416882     0.02140
C514        C  0.08883136  0.66070300  0.58183853     0.08160
C515        C  0.07774899  0.68792974  0.57608806    -0.04940
H516        H  0.12184423  0.64870371  0.61442375     0.08830
H517        H  0.06150364  0.69358794  0.56023582     0.10030
Cu518      Cu  0.13270939  0.71249367  0.64338695     0.44170
Cu519      Cu  0.08269349  0.75078104  0.59711248     0.41990
Cu520      Cu  0.12617610  0.78978898  0.64987982     0.43880
N521        N  0.15606189  0.73668695  0.67290915    -0.33590
N522        N  0.15459900  0.76518400  0.67450573    -0.27850
C523        C  0.17359248  0.77447111  0.69446708    -0.03950
C524        C  0.18734412  0.75061227  0.70625774     0.08270
C525        C  0.17560943  0.72702367  0.69215055     0.02070
H526        H  0.17692754  0.79690997  0.70018064     0.09720
H527        H  0.18141757  0.70453880  0.69507245     0.08800
N528        N  0.09475840  0.80881970  0.62398274    -0.35040
N529        N  0.07906231  0.79458389  0.60478363    -0.27220
C530        C  0.06037057  0.81294504  0.59218136    -0.02460
C531        C  0.06461127  0.83995250  0.60398525     0.06150
C532        C  0.08638440  0.83666295  0.62413387     0.04240
H533        H  0.04455205  0.80693888  0.57603110     0.09350
H534        H  0.09517730  0.85316918  0.63817488     0.08180
O535        O  0.94180091  0.98171169  0.61141098    -0.71860
O536        O  0.02002394  0.01813700  0.61240858    -0.72840
O537        O  0.96270818  0.03846554  0.61147386    -0.61460
O538        O  0.99888699  0.96057862  0.61242327    -0.69870
O539        O  0.00099187  0.96010670  0.56444729    -0.69420
O540        O  0.96359507  0.03902793  0.56340823    -0.60680
O541        O  0.02154732  0.01805475  0.56435035    -0.73180
O542        O  0.94282562  0.98044141  0.56337497    -0.71960
Cu543      Cu  0.98091534  0.99971481  0.61350675     1.04560
Cu544      Cu  0.98227100  0.99940822  0.56209224     1.04330
C545        C  0.93002058  0.97522344  0.58735495     0.94340
C546        C  0.03292579  0.02415999  0.58874930     0.93480
C547        C  0.95713145  0.05092821  0.58753034     0.85620
C548        C  0.00554677  0.94789395  0.58883863     0.91900
N549        N  0.58783788  0.09670500  0.79364382    -0.26210
N550        N  0.60565045  0.11425291  0.80745249    -0.34060
C551        C  0.60604135  0.10701791  0.83556367     0.02140
C552        C  0.58752111  0.08388287  0.83971626     0.08160
C553        C  0.57619937  0.07799529  0.81268512    -0.04940
H554        H  0.61936127  0.11746563  0.85169490     0.08830
H555        H  0.56169418  0.06054772  0.80700229     0.10030
Cu556      Cu  0.63034878  0.14605867  0.78763100     0.44170
Cu557      Cu  0.58215742  0.09761555  0.74932301     0.41990
Cu558      Cu  0.62624263  0.15030964  0.71028629     0.43880
N559        N  0.65532718  0.17430413  0.76327820    -0.33590
N560        N  0.65472402  0.17509190  0.73471079    -0.27850
C561        C  0.67441269  0.19440158  0.72534086    -0.03950
C562        C  0.68774701  0.20664351  0.74920563     0.08270
C563        C  0.67501522  0.19342131  0.77288013     0.02070
H564        H  0.67838259  0.19950134  0.70283753     0.09720
H565        H  0.68010902  0.19699127  0.79544072     0.08800
N566        N  0.59528927  0.12389200  0.69113065    -0.35040
N567        N  0.57996335  0.10419767  0.70515946    -0.27220
C568        C  0.56170347  0.09129570  0.68658287    -0.02460
C569        C  0.56560639  0.10362035  0.65969260     0.06150
C570        C  0.58683602  0.12431141  0.66332234     0.04240
H571        H  0.54584845  0.07513539  0.69252293     0.09350
H572        H  0.59506450  0.13903971  0.64708543     0.08180
N573        N  0.38651438  0.10601680  0.29378844    -0.26210
N574        N  0.36937823  0.12359469  0.30851206    -0.34060
C575        C  0.37707755  0.12287039  0.33655253     0.02140
C576        C  0.40001261  0.10393184  0.33943921     0.08160
C577        C  0.40559116  0.09375316  0.31198404    -0.04940
H578        H  0.36715086  0.13566238  0.35345923     0.08830
H579        H  0.42248020  0.07884073  0.30560921     0.10030
Cu580      Cu  0.33723254  0.14887320  0.28970922     0.44170
Cu581      Cu  0.38380027  0.09962679  0.24966683     0.41990
Cu582      Cu  0.33107126  0.14322774  0.21206923     0.43880
N583        N  0.30876322  0.17362181  0.26516786    -0.33590
N584        N  0.30743506  0.17230920  0.23663545    -0.27850
C585        C  0.28808119  0.19181505  0.22708260    -0.03950
C586        C  0.27632737  0.20581974  0.25075717     0.08270
C587        C  0.28985961  0.19367194  0.27456474     0.02070
H588        H  0.28253207  0.19510854  0.20458196     0.09720
H589        H  0.28654959  0.19931701  0.29703891     0.08800
N590        N  0.35645500  0.11211659  0.19217262    -0.35040
N591        N  0.37599354  0.09638195  0.20581816    -0.27220
C592        C  0.38891305  0.07860100  0.18678379    -0.02460
C593        C  0.37691021  0.08332699  0.15973403     0.06150
C594        C  0.35628760  0.10467389  0.16411743     0.04240
H595        H  0.40605964  0.06367076  0.19230671     0.09350
H596        H  0.34181363  0.11392427  0.14824492     0.08180
N597        N  0.27622181  0.10279836  0.59879286    -0.26210
N598        N  0.29019244  0.12313725  0.61323439    -0.34060
C599        C  0.31784783  0.12366828  0.60424631     0.02140
C600        C  0.32143659  0.10237105  0.58359867     0.08160
C601        C  0.29467663  0.08958855  0.58057510    -0.04940
H602        H  0.33402651  0.13877633  0.61180060     0.08830
H603        H  0.28874403  0.07279420  0.56541615     0.10030
Cu604      Cu  0.27106873  0.14985216  0.64399745     0.44170
Cu605      Cu  0.23227925  0.09555985  0.60239252     0.41990
Cu606      Cu  0.19388086  0.14271512  0.65189905     0.43880
N607        N  0.24679954  0.17429004  0.67297903    -0.33590
N608        N  0.21833583  0.17245217  0.67501509    -0.27850
C609        C  0.20893241  0.19169592  0.69472919    -0.03950
C610        C  0.23265496  0.20602564  0.70600323     0.08270
C611        C  0.25631436  0.19435351  0.69178082     0.02070
H612        H  0.18652677  0.19456386  0.70089319     0.09720
H613        H  0.27877230  0.20029796  0.69459938     0.08800
N614        N  0.17417071  0.11080713  0.62719548    -0.35040
N615        N  0.18809384  0.09385986  0.60888992    -0.27220
C616        C  0.16906763  0.07603217  0.59606441    -0.02460
C617        C  0.14170528  0.08189058  0.60687737     0.06150
C618        C  0.14593856  0.10402806  0.62669022     0.04240
H619        H  0.17485995  0.06025794  0.57979792     0.09350
H620        H  0.12983429  0.11424919  0.64023676     0.08180
O621        O  0.49728074  0.11430068  0.53957343    -0.71860
O622        O  0.46457623  0.11353804  0.46000175    -0.72840
O623        O  0.44125860  0.11316002  0.51615960    -0.61460
O624        O  0.52027112  0.11488948  0.48338955    -0.69870
O625        O  0.52192801  0.06713497  0.48163991    -0.69420
O626        O  0.44207772  0.06529980  0.51823053    -0.60680
O627        O  0.46372808  0.06555123  0.46032878    -0.73180
O628        O  0.50014343  0.06649219  0.53969908    -0.71960
Cu629      Cu  0.48080784  0.11546750  0.49981810     1.04560
Cu630      Cu  0.48202378  0.06427958  0.50000073     1.04330
C631        C  0.50424312  0.09078657  0.55224168     0.94340
C632        C  0.45875063  0.08961097  0.44761782     0.93480
C633        C  0.42900251  0.08932388  0.52258507     0.85620
C634        C  0.53362214  0.09174725  0.47665542     0.91900
N635        N  0.18882317  0.90453545  0.39246160    -0.26210
N636        N  0.17421317  0.88519000  0.37733445    -0.34060
C637        C  0.14581939  0.89124642  0.37923059     0.02140
C638        C  0.14249194  0.91567641  0.39615876     0.08160
C639        C  0.17018809  0.92358922  0.40407838    -0.04940
H640        H  0.12893502  0.87933426  0.36827896     0.08830
H641        H  0.17637300  0.94184281  0.41733312     0.10030
Cu642      Cu  0.19363138  0.85272119  0.35311247     0.44170
Cu643      Cu  0.23329182  0.90400997  0.39727106     0.41990
Cu644      Cu  0.27172463  0.84957397  0.35632916     0.43880
N645        N  0.21845810  0.82512563  0.32778558    -0.33590
N646        N  0.24705229  0.82480284  0.32809326    -0.27850
C647        C  0.25654514  0.80578118  0.30820297    -0.03950
C648        C  0.23278000  0.79324810  0.29500530     0.08270
C649        C  0.20900560  0.80599474  0.30803698     0.02070
H650        H  0.27909107  0.80104114  0.30404000     0.09720
H651        H  0.18646160  0.80206144  0.30314364     0.08800
N652        N  0.29106763  0.87586412  0.38722313    -0.35040
N653        N  0.27711461  0.89619964  0.40172703    -0.27220
C654        C  0.29547764  0.90897107  0.42030754    -0.02460
C655        C  0.32217472  0.89595472  0.41735450     0.06150
C656        C  0.31865723  0.87500321  0.39636939     0.04240
H657        H  0.28960808  0.92587984  0.43538633     0.09350
H658        H  0.33485617  0.85999511  0.38859166     0.08180
N659        N  0.88501484  0.79489604  0.39423306    -0.26210
N660        N  0.87154080  0.80735839  0.37237977    -0.34060
C661        C  0.87989189  0.83504244  0.37061183     0.02140
C662        C  0.89926704  0.84075586  0.39280766     0.08160
C663        C  0.90199068  0.81454851  0.40729463    -0.04940
H664        H  0.87244310  0.84963633  0.35394662     0.08830
H665        H  0.91498094  0.80993002  0.42616638     0.10030
Cu666      Cu  0.84115853  0.78722961  0.34653543     0.44170
Cu667      Cu  0.88041104  0.75149733  0.40414984     0.41990
Cu668      Cu  0.83062424  0.71159736  0.35730853     0.43880
N669        N  0.81065030  0.76359071  0.32404071    -0.33590
N670        N  0.80749281  0.73537299  0.32714248    -0.27850
C671        C  0.78690867  0.72611303  0.30882155    -0.03950
C672        C  0.77630691  0.74979378  0.29389133     0.08270
C673        C  0.79176051  0.77320660  0.30414718     0.02070
H674        H  0.77981840  0.70390015  0.30689928     0.09720
H675        H  0.78981122  0.79549643  0.29727561     0.08800
N676        N  0.85562666  0.69301469  0.38957552    -0.35040
N677        N  0.87366535  0.70731568  0.40648874    -0.27220
C678        C  0.88681147  0.68852567  0.42438368    -0.02460
C679        C  0.87657550  0.66101408  0.41847864     0.06150
C680        C  0.85671122  0.66481875  0.39637438     0.04240
H681        H  0.90306494  0.69450719  0.44008431     0.09350
H682        H  0.84367199  0.64839134  0.38606018     0.08180
N683        N  0.68783777  0.10235561  0.40082381    -0.26210
N684        N  0.67426544  0.12135002  0.38430814    -0.34060
C685        C  0.64642276  0.12264272  0.39238650     0.02140
C686        C  0.64215416  0.10360866  0.41511338     0.08160
C687        C  0.66887759  0.09095277  0.41978818    -0.04940
H688        H  0.63056978  0.13689806  0.38273093     0.08830
H689        H  0.67447185  0.07562466  0.43657629     0.10030
Cu690      Cu  0.69393785  0.14670514  0.35290894     0.44170
Cu691      Cu  0.73188373  0.09476645  0.39827313     0.41990
Cu692      Cu  0.77081037  0.14249364  0.34856423     0.43880
N693        N  0.71814880  0.17245931  0.32524449    -0.33590
N694        N  0.74670364  0.17179036  0.32452497    -0.27850
C695        C  0.75618532  0.19168424  0.30548819    -0.03950
C696        C  0.73239310  0.20524411  0.29333398     0.08270
C697        C  0.70863630  0.19242936  0.30632781     0.02070
H698        H  0.77870593  0.19548701  0.30034458     0.09720
H699        H  0.68609340  0.19750517  0.30259033     0.08800
N700        N  0.79004724  0.11031927  0.37333112    -0.35040
N701        N  0.77609818  0.09309187  0.39140239    -0.27220
C702        C  0.79516611  0.07507276  0.40399295    -0.02460
C703        C  0.82251032  0.08122739  0.39336028     0.06150
C704        C  0.81829114  0.10361704  0.37385608     0.04240
H705        H  0.78947654  0.05902487  0.42005066     0.09350
H706        H  0.83445840  0.11412038  0.36059447     0.08180
N707        N  0.08788500  0.29490710  0.40374683    -0.26210
N708        N  0.10915199  0.30774655  0.38964755    -0.34060
C709        C  0.11041383  0.33553540  0.39777700     0.02140
C710        C  0.08856944  0.34076987  0.41769496     0.08160
C711        C  0.07479564  0.31433010  0.42098706    -0.04940
H712        H  0.12637884  0.35062119  0.38977054     0.08830
H713        H  0.05628149  0.30948566  0.43444884     0.10030
Cu714      Cu  0.13487950  0.28793016  0.35881766     0.44170
Cu715      Cu  0.07808851  0.25156344  0.39924331     0.41990
Cu716      Cu  0.12360291  0.21236069  0.34799706     0.43880
N717        N  0.15756332  0.26412411  0.32844204    -0.33590
N718        N  0.15426270  0.23593816  0.32522065    -0.27850
C719        C  0.17280738  0.22651034  0.30485789    -0.03950
C720        C  0.18811281  0.25003702  0.29444948     0.08270
C721        C  0.17782179  0.27354523  0.30979847     0.02070
H722        H  0.17462517  0.20428646  0.29776931     0.09720
H723        H  0.18491002  0.29576754  0.30794228     0.08800
N724        N  0.09131231  0.19359842  0.37292827    -0.35040
N725        N  0.07492331  0.20765480  0.39166801    -0.27220
C726        C  0.05718444  0.18876672  0.40490368    -0.02460
C727        C  0.06267648  0.16141921  0.39400780     0.06150
C728        C  0.08430810  0.16546162  0.37361228     0.04240
H729        H  0.04203407  0.19452447  0.42179372     0.09350
H730        H  0.09433705  0.14920324  0.36011040     0.08180
O731        O  0.02240155  0.98191531  0.38785750    -0.71860
O732        O  0.94534285  0.02080726  0.38793122    -0.72840
O733        O  0.00318595  0.03967615  0.38940744    -0.61460
O734        O  0.96410013  0.96301024  0.38651937    -0.69870
O735        O  0.96443757  0.96017623  0.43450649    -0.69420
O736        O  0.00141286  0.03918129  0.43744908    -0.60680
O737        O  0.94336348  0.01804679  0.43589608    -0.73180
O738        O  0.02228759  0.98064624  0.43591333    -0.71960
Cu739      Cu  0.98381087  0.00137318  0.38633436     1.04560
Cu740      Cu  0.98288971  0.99948285  0.43773444     1.04330
C741        C  0.03449859  0.97515685  0.41170883     0.94340
C742        C  0.93214577  0.02538373  0.41172033     0.93480
C743        C  0.00821115  0.05166309  0.41370911     0.85620
C744        C  0.95797920  0.94956211  0.40984575     0.91900
C745        C  0.71127068  0.24922103  0.22732683     0.04210
C746        C  0.73257922  0.27082232  0.22774407    -0.11940
C747        C  0.75368625  0.27129702  0.24951898     0.01710
C748        C  0.75345750  0.24984136  0.27102931    -0.10460
C749        C  0.73234423  0.22800626  0.27084671     0.04210
C750        C  0.71127394  0.22787378  0.24896112    -0.09880
H751        H  0.73276336  0.28731328  0.21108693     0.09800
H752        H  0.76975724  0.25009431  0.28784998     0.07330
H753        H  0.69492672  0.21110490  0.24872647     0.07180
C754        C  0.71061782  0.77196905  0.25036319     0.04210
C755        C  0.73218046  0.77150651  0.27171080    -0.11940
C756        C  0.75362735  0.75004246  0.27154170     0.01710
C757        C  0.75353149  0.72893956  0.24981199    -0.10460
C758        C  0.73222578  0.72913667  0.22824779     0.04210
C759        C  0.71074598  0.75068282  0.22863883    -0.09880
H760        H  0.73233306  0.78789610  0.28844836     0.09800
H761        H  0.77010799  0.71235541  0.24967377     0.07330
H762        H  0.69420171  0.75089641  0.21205802     0.07180
C763        C  0.25404483  0.74986718  0.22859870     0.04210
C764        C  0.23243522  0.72853473  0.22861411    -0.11940
C765        C  0.21104329  0.72814402  0.25018057     0.01710
C766        C  0.21132343  0.74939639  0.27184428    -0.10460
C767        C  0.23272596  0.77093402  0.27209116     0.04210
C768        C  0.25403808  0.77102461  0.25040180    -0.09880
H769        H  0.23228952  0.71216971  0.21185976     0.09800
H770        H  0.19485852  0.74915732  0.28854026     0.07330
H771        H  0.27063494  0.78754875  0.25050912     0.07180
C772        C  0.21025320  0.75038097  0.72847518     0.04210
C773        C  0.21082345  0.72873964  0.74977952    -0.11940
C774        C  0.23260449  0.72839807  0.77094883     0.01710
C775        C  0.25398374  0.75000774  0.77057691    -0.10460
C776        C  0.25368360  0.77170352  0.74926193     0.04210
C777        C  0.23175901  0.77174488  0.72832432    -0.09880
H778        H  0.19427735  0.71216215  0.74987247     0.09800
H779        H  0.27082019  0.74997963  0.78685871     0.07330
H780        H  0.23142121  0.78846187  0.71189235     0.07180
C781        C  0.21114876  0.27162724  0.75041168     0.04210
C782        C  0.23279945  0.27146213  0.77167333    -0.11940
C783        C  0.25435655  0.25008825  0.77167101     0.01710
C784        C  0.25420766  0.22873744  0.75008010    -0.10460
C785        C  0.23270832  0.22862066  0.72863371     0.04210
C786        C  0.21121371  0.25011488  0.72895489    -0.09880
H787        H  0.23288721  0.28799775  0.78826145     0.09800
H788        H  0.27081320  0.21219012  0.74998555     0.07330
H789        H  0.19456240  0.25011068  0.71248148     0.07180
C790        C  0.71066958  0.22895845  0.74947095     0.04210
C791        C  0.71090925  0.25036830  0.77103725    -0.11940
C792        C  0.73271402  0.27148556  0.77156493     0.01710
C793        C  0.75429660  0.27120760  0.75024928    -0.10460
C794        C  0.75429191  0.25004700  0.72853673     0.04210
C795        C  0.73248610  0.22891742  0.72827935    -0.09880
H796        H  0.69415515  0.25059438  0.78744589     0.09800
H797        H  0.77111916  0.28751448  0.75054246     0.07330
H798        H  0.73250521  0.21248353  0.71158724     0.07180
C799        C  0.71096923  0.75000796  0.77115373     0.04210
C800        C  0.73264020  0.72868594  0.77094068    -0.11940
C801        C  0.75410843  0.72863451  0.74940703     0.01710
C802        C  0.75372948  0.75014822  0.72795391    -0.10460
C803        C  0.73225273  0.77164958  0.72791388     0.04210
C804        C  0.71095460  0.77143151  0.74959966    -0.09880
H805        H  0.73280372  0.71213185  0.78753879     0.09800
H806        H  0.77022877  0.75017854  0.71129233     0.07330
H807        H  0.69432267  0.78794804  0.74970361     0.07180
C808        C  0.21071394  0.25005670  0.27193165     0.04210
C809        C  0.21095490  0.27152874  0.25046164    -0.11940
C810        C  0.23240561  0.27162547  0.22893327     0.01710
C811        C  0.25380648  0.25003696  0.22915754    -0.10460
C812        C  0.25383880  0.22851308  0.25062157     0.04210
C813        C  0.23218100  0.22862328  0.27189585    -0.09880
H814        H  0.19440744  0.28813954  0.25051414     0.09800
H815        H  0.27043477  0.24996455  0.21262000     0.07330
H816        H  0.23201811  0.21202162  0.28845443     0.07180
C817        C  0.06514118  0.10779598  0.40062341     0.24680
C818        C  0.04914668  0.13362864  0.40253094    -0.23430
C819        C  0.02004805  0.13229303  0.41167513     0.19590
C820        C  0.00701270  0.10551399  0.41736622     0.24620
C821        C  0.02273947  0.07984520  0.41368085    -0.23370
C822        C  0.05191608  0.08124281  0.40582890     0.19520
F823        F  0.06752020  0.05669378  0.40254121    -0.13330
F824        F  0.09365362  0.10806108  0.39364819    -0.15690
F825        F  0.97870112  0.10456709  0.42502676    -0.15690
F826        F  0.00370935  0.15660797  0.41351815    -0.13330
C827        C  0.90283324  0.06939789  0.40405555     0.24680
C828        C  0.90399829  0.03991892  0.41077299    -0.23430
C829        C  0.87826803  0.02410408  0.41337400     0.19590
C830        C  0.85156622  0.03754678  0.40832114     0.24620
C831        C  0.85034551  0.06711539  0.40083859    -0.23370
C832        C  0.87629569  0.08300589  0.39950744     0.19520
F833        F  0.87612352  0.11180351  0.39387482    -0.13330
F834        F  0.92756577  0.08493180  0.40134917    -0.15690
F835        F  0.82719255  0.02123826  0.40922599    -0.15690
F836        F  0.87911727  0.99536763  0.41935465    -0.13330
C837        C  0.93979580  0.87006346  0.41510374     0.24680
C838        C  0.91372115  0.86882825  0.39918771    -0.23430
C839        C  0.90179444  0.89493982  0.38876416     0.19590
C840        C  0.91629164  0.92106113  0.39257965     0.24620
C841        C  0.94237889  0.92203071  0.40784574    -0.23370
C842        C  0.95372756  0.89656602  0.41973955     0.19520
F843        F  0.97899753  0.89716190  0.43465245    -0.13330
F844        F  0.95258439  0.84569727  0.42526115    -0.15690
F845        F  0.90459703  0.94567064  0.38159027    -0.15690
F846        F  0.87580675  0.89560241  0.37522152    -0.13330
C847        C  0.11367077  0.96124535  0.39821990     0.24680
C848        C  0.11535596  0.93121084  0.40245950    -0.23430
C849        C  0.09063015  0.91605283  0.41162006     0.19590
C850        C  0.06451926  0.93072030  0.41615715     0.24620
C851        C  0.06266868  0.96052796  0.41086049    -0.23370
C852        C  0.08737632  0.97566265  0.40190789     0.19520
F853        F  0.08588515  0.00430396  0.39603798    -0.13330
F854        F  0.13707406  0.97639197  0.38898025    -0.15690
F855        F  0.04073995  0.91566683  0.42450454    -0.15690
F856        F  0.09178809  0.88707585  0.41615402    -0.13330
C857        C  0.57987321  0.06984070  0.45693418     0.24680
C858        C  0.56235674  0.09423018  0.46235862    -0.23430
C859        C  0.57229570  0.12163139  0.45323372     0.19590
C860        C  0.59837186  0.12446490  0.43846293     0.24620
C861        C  0.61538797  0.10012715  0.43229471    -0.23370
C862        C  0.60625513  0.07282473  0.44215379     0.19520
F863        F  0.62234034  0.04889651  0.43661204    -0.13330
F864        F  0.57148739  0.04309775  0.46566778    -0.15690
F865        F  0.60717921  0.15135182  0.43060475    -0.15690
F866        F  0.55664458  0.14601063  0.45807532    -0.13330
C867        C  0.36383633  0.07196664  0.56954971     0.24680
C868        C  0.34734251  0.09719748  0.56594991    -0.23430
C869        C  0.35628561  0.11823241  0.54610030     0.19590
C870        C  0.38208393  0.11476790  0.53085623     0.24620
C871        C  0.39974780  0.09034993  0.53560322    -0.23370
C872        C  0.38998322  0.06854860  0.55453440     0.19520
F873        F  0.40635480  0.04472412  0.55967947    -0.13330
F874        F  0.35529126  0.05133789  0.58862571    -0.15690
F875        F  0.38990412  0.13555271  0.51161508    -0.15690
F876        F  0.34005889  0.14230672  0.54163840    -0.13330
C877        C  0.45613651  0.11021342  0.39795836     0.24680
C878        C  0.44579139  0.09034895  0.41855670    -0.23430
C879        C  0.42145503  0.07337450  0.41200973     0.19590
C880        C  0.40676223  0.07741156  0.38584274     0.24620
C881        C  0.41659585  0.09799476  0.36581828    -0.23370
C882        C  0.44172812  0.11385531  0.37166984     0.19520
F883        F  0.45175302  0.13351762  0.35228489    -0.13330
F884        F  0.48006583  0.12629922  0.40347176    -0.15690
F885        F  0.38253041  0.06181459  0.38031991    -0.15690
F886        F  0.41095031  0.05417154  0.43159469    -0.13330
C887        C  0.52911743  0.12047692  0.62425110     0.24680
C888        C  0.54808665  0.09883776  0.63366318    -0.23430
C889        C  0.55085859  0.07326540  0.61760227     0.19590
C890        C  0.53583466  0.06998189  0.59149501     0.24620
C891        C  0.51767113  0.09226536  0.58129649    -0.23370
C892        C  0.51385529  0.11717594  0.59845520     0.19520
F893        F  0.49542147  0.13851651  0.59023835    -0.13330
F894        F  0.52544068  0.14491802  0.64009162    -0.15690
F895        F  0.54013873  0.04565208  0.57565147    -0.15690
F896        F  0.56908437  0.05206183  0.62657794    -0.13330
C897        C  0.08676894  0.02437548  0.58566749     0.24680
C898        C  0.06073585  0.03926445  0.59003393    -0.23430
C899        C  0.06129305  0.06843289  0.59803670     0.19590
C900        C  0.08760281  0.08253065  0.60243624     0.24620
C901        C  0.11395353  0.06744445  0.59954444    -0.23370
C902        C  0.11324506  0.03826865  0.59053691     0.19520
F903        F  0.13795518  0.02266603  0.58781645    -0.13330
F904        F  0.08649687  0.99604925  0.57796357    -0.15690
F905        F  0.08713443  0.11103288  0.60933895    -0.15690
F906        F  0.03619612  0.08321880  0.60186174    -0.13330
C907        C  0.02379568  0.87290115  0.61514513     0.24680
C908        C  0.04797048  0.86627058  0.59811344    -0.23430
C909        C  0.05684124  0.88545858  0.57634557     0.19590
C910        C  0.04221869  0.91165751  0.57229883     0.24620
C911        C  0.01880162  0.91898076  0.59029230    -0.23370
C912        C  0.00932185  0.89912026  0.61132519     0.19520
F913        F  0.98607546  0.90518849  0.62824892    -0.13330
F914        F  0.01460038  0.85420375  0.63585427    -0.15690
F915        F  0.05189642  0.93048183  0.55193467    -0.15690
F916        F  0.08019088  0.87917150  0.55967114    -0.13330
C917        C  0.90134153  0.10633006  0.60700062     0.24680
C918        C  0.91463188  0.13242740  0.59849651    -0.23430
C919        C  0.94132741  0.13099112  0.58355289     0.19590
C920        C  0.95461356  0.10421606  0.57827356     0.24620
C921        C  0.94187197  0.07870065  0.58850320    -0.23370
C922        C  0.91520030  0.07999363  0.60270203     0.19520
F923        F  0.90262112  0.05553887  0.61285274    -0.13330
F924        F  0.87478180  0.10590047  0.61944653    -0.15690
F925        F  0.98069178  0.10336323  0.56477651    -0.15690
F926        F  0.95538754  0.15533553  0.57521173    -0.13330
C927        C  0.85146694  0.96098673  0.60380289     0.24680
C928        C  0.84902212  0.93171286  0.59623830    -0.23430
C929        C  0.87271615  0.91746516  0.58363142     0.19590
C930        C  0.89874260  0.93223963  0.57903323     0.24620
C931        C  0.90156005  0.96114082  0.58779897    -0.23370
C932        C  0.87773518  0.97544210  0.60006328     0.19520
F933        F  0.88008883  0.00325651  0.60892962    -0.13330
F934        F  0.82888179  0.97513411  0.61616912    -0.15690
F935        F  0.92163469  0.91795439  0.56743749    -0.15690
F936        F  0.87064059  0.88921957  0.57596670    -0.13330
C937        C  0.39878723  0.02567728  0.10535481     0.24680
C938        C  0.39383619  0.04011624  0.07918111    -0.23430
C939        C  0.38505795  0.06908399  0.07945164     0.19590
C940        C  0.38053126  0.08339553  0.10562507     0.24620
C941        C  0.38412028  0.06871172  0.13209909    -0.23370
C942        C  0.39379391  0.03976606  0.13168670     0.19520
F943        F  0.39694233  0.02453047  0.15658105    -0.13330
F944        F  0.40713692  0.99756453  0.10541237    -0.15690
F945        F  0.37272867  0.11167265  0.10492195    -0.15690
F946        F  0.38043676  0.08339683  0.05421266    -0.13330
C947        C  0.37590923  0.93323461  0.92031543     0.24680
C948        C  0.39086548  0.95949871  0.92149110    -0.23430
C949        C  0.40234748  0.97132421  0.89601513     0.19590
C950        C  0.39777567  0.95751017  0.86938853     0.24620
C951        C  0.38231422  0.93117425  0.86807146    -0.23370
C952        C  0.37223372  0.91888210  0.89412164     0.19520
F953        F  0.35909583  0.89267907  0.89462013    -0.13330
F954        F  0.36484273  0.92132367  0.94477118    -0.15690
F955        F  0.40743132  0.97063415  0.84497618    -0.15690
F956        F  0.41660677  0.99697000  0.89671943    -0.13330
C957        C  0.36064109  0.12316394  0.95194095     0.24680
C958        C  0.38286474  0.13386423  0.93433328    -0.23430
C959        C  0.40897801  0.11854229  0.93218748     0.19590
C960        C  0.41229724  0.09197710  0.94641077     0.24620
C961        C  0.38953992  0.08056627  0.96321946    -0.23370
C962        C  0.36399730  0.09692726  0.96647609     0.19520
F963        F  0.34216255  0.08759628  0.98378312    -0.13330
F964        F  0.33564053  0.13825463  0.95514040    -0.15690
F965        F  0.43724465  0.07693719  0.94268550    -0.15690
F966        F  0.43069648  0.12862423  0.91517429    -0.13330
C967        C  0.38499746  0.86832632  0.03729115     0.24680
C968        C  0.38544439  0.86700804  0.06768880    -0.23430
C969        C  0.39204420  0.89204404  0.08355171     0.19590
C970        C  0.39716857  0.91820081  0.06931127     0.24620
C971        C  0.39539106  0.91978862  0.03910478    -0.23370
C972        C  0.38968412  0.89466812  0.02311292     0.19520
F973        F  0.38774249  0.89587221  0.99386298    -0.13330
F974        F  0.37838864  0.84454389  0.02142452    -0.15690
F975        F  0.40276754  0.94226304  0.08506383    -0.15690
F976        F  0.39342111  0.89118402  0.11286583    -0.13330
C977        C  0.55267584  0.04317842  0.90200980     0.24680
C978        C  0.57685661  0.03743828  0.91970108    -0.23430
C979        C  0.60447066  0.04614305  0.90996187     0.19590
C980        C  0.60770799  0.06084085  0.88388132     0.24620
C981        C  0.58359536  0.06717503  0.86665351    -0.23370
C982        C  0.55608866  0.05777045  0.87559937     0.19520
F983        F  0.53240133  0.06353946  0.85925350    -0.13330
F984        F  0.52573761  0.03484228  0.91020108    -0.15690
F985        F  0.63473303  0.06841272  0.87521478    -0.15690
F986        F  0.62864112  0.04088771  0.92577887    -0.13330
C987        C  0.58648485  0.91785948  0.10672280     0.24680
C988        C  0.57952682  0.93177371  0.13289957    -0.23430
C989        C  0.56627161  0.95929733  0.13181220     0.19590
C990        C  0.56110782  0.97283055  0.10510844     0.24620
C991        C  0.56956903  0.95927102  0.07933101    -0.23370
C992        C  0.58207509  0.93173002  0.08037825     0.19520
F993        F  0.59068561  0.91842663  0.05569632    -0.13330
F994        F  0.59758382  0.89070155  0.10637816    -0.15690
F995        F  0.54958675  0.99983422  0.10451187    -0.15690
F996        F  0.55974591  0.97383089  0.15645403    -0.13330
C997        C  0.57397340  0.89212370  0.91635941     0.24680
C998        C  0.57888047  0.86656719  0.93215636    -0.23430
C999        C  0.57755387  0.86745709  0.96256936     0.19590
C1000       C  0.57277074  0.89368267  0.97685888     0.24620
C1001       C  0.56896611  0.91926131  0.96102497    -0.23370
C1002       C  0.56896731  0.91826033  0.93072963     0.19520
F1003       F  0.56524374  0.94284827  0.91510258    -0.13330
F1004       F  0.57414715  0.89183495  0.88700562    -0.15690
F1005       F  0.57275543  0.89426396  0.00617202    -0.15690
F1006       F  0.58257278  0.84332684  0.97853509    -0.13330
C1007       C  0.60390561  0.12293779  0.04730907     0.24680
C1008       C  0.58169027  0.13370666  0.06491438    -0.23430
C1009       C  0.55570636  0.11823869  0.06737611     0.19590
C1010       C  0.55249138  0.09153349  0.05342802     0.24620
C1011       C  0.57523888  0.08008795  0.03663056    -0.23370
C1012       C  0.60066449  0.09651535  0.03310127     0.19520
F1013       F  0.62246256  0.08706315  0.01581445    -0.13330
F1014       F  0.62880407  0.13811090  0.04384496    -0.15690
F1015       F  0.52769496  0.07635013  0.05747112    -0.15690
F1016       F  0.53405024  0.12829363  0.08448448    -0.13330
C1017       C  0.45995287  0.39449496  0.91053411     0.24680
C1018       C  0.44378543  0.42008613  0.91216579    -0.23430
C1019       C  0.41360818  0.41894835  0.90987699     0.19590
C1020       C  0.39969838  0.39258450  0.90498065     0.24620
C1021       C  0.41585101  0.36690843  0.90215204    -0.23370
C1022       C  0.44611768  0.36803079  0.90562821     0.19520
F1023       F  0.46252062  0.34387061  0.90261631    -0.13330
F1024       F  0.48921663  0.39531049  0.91258649    -0.15690
F1025       F  0.37042251  0.39224062  0.90292924    -0.15690
F1026       F  0.39770000  0.44358920  0.91145467    -0.13330
C1027       C  0.51091254  0.60016013  0.88656177     0.24680
C1028       C  0.51965729  0.58054710  0.90813463    -0.23430
C1029       C  0.54231782  0.58822302  0.92690275     0.19590
C1030       C  0.55686106  0.61452626  0.92321156     0.24620
C1031       C  0.54873626  0.63349113  0.90096310    -0.23370
C1032       C  0.52533990  0.62647299  0.88305371     0.19520
F1033       F  0.51675813  0.64496520  0.86191215    -0.13330
F1034       F  0.48835139  0.59382036  0.86889068    -0.15690
F1035       F  0.57950365  0.62108645  0.94067970    -0.15690
F1036       F  0.55136658  0.56964793  0.94777125    -0.13330
C1037       C  0.35986415  0.55040334  0.87863227     0.24680
C1038       C  0.34843057  0.56641547  0.90164003    -0.23430
C1039       C  0.36271229  0.56643540  0.92841293     0.19590
C1040       C  0.38910803  0.55184028  0.93164927     0.24620
C1041       C  0.40132203  0.53671718  0.90814027    -0.23370
C1042       C  0.38582636  0.53544159  0.88187556     0.19520
F1043       F  0.39578100  0.51980762  0.85908795    -0.13330
F1044       F  0.34575143  0.54916705  0.85291619    -0.15690
F1045       F  0.40313534  0.55349906  0.95737065    -0.15690
F1046       F  0.35179861  0.58173720  0.95096898    -0.13330
C1047       C  0.61349192  0.45761767  0.91674231     0.24680
C1048       C  0.61467014  0.43114679  0.90147678    -0.23430
C1049       C  0.58851138  0.41865939  0.89203806     0.19590
C1050       C  0.56234519  0.43302357  0.89598868     0.24620
C1051       C  0.56136097  0.45954457  0.91050023    -0.23370
C1052       C  0.58691769  0.47149103  0.92152006     0.19520
F1053       F  0.58634309  0.49733625  0.93541834    -0.13330
F1054       F  0.63797689  0.47088012  0.92590258    -0.15690
F1055       F  0.53774621  0.42100353  0.88542712    -0.15690
F1056       F  0.58789892  0.39234949  0.87912672    -0.13330
C1057       C  0.08077816  0.57146289  0.95917053     0.24680
C1058       C  0.06097771  0.59458193  0.96120816    -0.23430
C1059       C  0.06857092  0.62144123  0.94892054     0.19590
C1060       C  0.09492293  0.62503612  0.93475702     0.24620
C1061       C  0.11448485  0.60193828  0.93230659    -0.23370
C1062       C  0.10736373  0.57517653  0.94495848     0.19520
F1063       F  0.12576854  0.55238614  0.94293389    -0.13330
F1064       F  0.07459865  0.54533037  0.97105133    -0.15690
F1065       F  0.10153344  0.65155661  0.92403587    -0.15690
F1066       F  0.05034490  0.64444012  0.95015515    -0.13330
C1067       C  0.00580405  0.58829970  0.10575187     0.24680
C1068       C  0.02131514  0.58826581  0.07970936    -0.23430
C1069       C  0.05136314  0.59208433  0.08018359     0.19590
C1070       C  0.06570980  0.59676154  0.10637792     0.24620
C1071       C  0.05012529  0.59781652  0.13256236    -0.23370
C1072       C  0.02004153  0.59296373  0.13202103     0.19520
F1073       F  0.00408628  0.59429669  0.15664013    -0.13330
F1074       F  0.97671325  0.58484977  0.10566003    -0.15690
F1075       F  0.09485271  0.60020910  0.10606368    -0.15690
F1076       F  0.06669805  0.59202588  0.05512014    -0.13330
C1077       C  0.89981226  0.59904617  0.89235077     0.24680
C1078       C  0.91615558  0.59924682  0.86670477    -0.23430
C1079       C  0.94597296  0.59295013  0.86811330     0.19590
C1080       C  0.95925620  0.58781938  0.89492477     0.24620
C1081       C  0.94289108  0.58887745  0.92048628    -0.23370
C1082       C  0.91314415  0.59413792  0.91891014     0.19520
F1083       F  0.89700532  0.59515365  0.94328771    -0.13330
F1084       F  0.87080425  0.60353679  0.89180549    -0.15690
F1085       F  0.98822922  0.58316529  0.89608360    -0.15690
F1086       F  0.96251563  0.59328807  0.84384699    -0.13330
C1087       C  0.84976771  0.59424378  0.03726072     0.24680
C1088       C  0.84836410  0.59533533  0.06762363    -0.23430
C1089       C  0.87338836  0.58926750  0.08380229     0.19590
C1090       C  0.89957819  0.58338880  0.06981664     0.24620
C1091       C  0.90124973  0.58382994  0.03955717    -0.23370
C1092       C  0.87607779  0.58873960  0.02340788     0.19520
F1093       F  0.87717491  0.58937793  0.99418880    -0.13330
F1094       F  0.82615658  0.60036612  0.02092627    -0.15690
F1095       F  0.92358953  0.57844090  0.08583054    -0.15690
F1096       F  0.87256509  0.58927109  0.11314780    -0.13330
C1097       C  0.90247278  0.40625921  0.93115049     0.24680
C1098       C  0.90330303  0.41272663  0.96070347    -0.23430
C1099       C  0.87735324  0.41529656  0.97617113     0.19590
C1100       C  0.85087133  0.40979398  0.96256988     0.24620
C1101       C  0.85004280  0.40194042  0.93310646    -0.23370
C1102       C  0.87613059  0.40109606  0.91737583     0.19520
F1103       F  0.87626879  0.39531195  0.88860723    -0.13330
F1104       F  0.92733830  0.40447052  0.91569608    -0.15690
F1105       F  0.82633518  0.41062542  0.97867947    -0.15690
F1106       F  0.87771404  0.42203072  0.00468639    -0.13330
C1107       C  0.91373939  0.40762076  0.08109961     0.24680
C1108       C  0.94381052  0.41093501  0.07999527    -0.23430
C1109       C  0.95983498  0.41006694  0.10570670     0.19590
C1110       C  0.94598771  0.40518421  0.13220691     0.24620
C1111       C  0.91583761  0.40094339  0.13325565    -0.23370
C1112       C  0.89980148  0.40281359  0.10746626     0.19520
F1113       F  0.87058480  0.40001028  0.10769688    -0.13330
F1114       F  0.89792635  0.40820877  0.05645547    -0.15690
F1115       F  0.96229264  0.40302395  0.15651054    -0.15690
F1116       F  0.98899374  0.41278256  0.10503955    -0.13330
C1117       C  0.00730820  0.39665791  0.89695747     0.24680
C1118       C  0.02097697  0.41100490  0.91995571    -0.23430
C1119       C  0.04916637  0.42164679  0.91624611     0.19590
C1120       C  0.06390583  0.41696013  0.89019032     0.24620
C1121       C  0.05022327  0.40251320  0.86727331    -0.23370
C1122       C  0.02160371  0.39299237  0.87057017     0.19520
F1123       F  0.00802663  0.37888961  0.84870931    -0.13330
F1124       F  0.98030339  0.38570506  0.90025496    -0.15690
F1125       F  0.09157586  0.42633331  0.88733968    -0.15690
F1126       F  0.06292794  0.43513637  0.93836530    -0.13330
C1127       C  0.08770628  0.40357069  0.02181118     0.24680
C1128       C  0.06291414  0.41016536  0.03804764    -0.23430
C1129       C  0.06504220  0.41314219  0.06811319     0.19590
C1130       C  0.09129145  0.40798986  0.08209683     0.24620
C1131       C  0.11601950  0.40059897  0.06605565    -0.23370
C1132       C  0.11426957  0.39922386  0.03570350     0.19520
F1133       F  0.13787721  0.39225526  0.01967349    -0.13330
F1134       F  0.08601729  0.40085334  0.99262296    -0.15690
F1135       F  0.09258399  0.41028859  0.11133857    -0.15690
F1136       F  0.04145273  0.42017667  0.08401953    -0.13330
C1137       C  0.35024507  0.46259576  0.09596513     0.24680
C1138       C  0.34951311  0.43221874  0.09769315    -0.23430
C1139       C  0.37519825  0.41644587  0.09356871     0.19590
C1140       C  0.40130422  0.43081026  0.08859754     0.24620
C1141       C  0.40214383  0.46107853  0.08801964    -0.23370
C1142       C  0.37651171  0.47693134  0.09146805     0.19520
F1143       F  0.37711672  0.50626524  0.09145766    -0.13330
F1144       F  0.32588487  0.47843704  0.10024482    -0.15690
F1145       F  0.42600225  0.41523127  0.08541509    -0.15690
F1146       F  0.37502355  0.38710870  0.09438288    -0.13330
C1147       C  0.41324045  0.58321132  0.08028918     0.24680
C1148       C  0.44297525  0.58071620  0.08564415    -0.23430
C1149       C  0.45855132  0.60497297  0.09508567     0.19590
C1150       C  0.44441347  0.63128379  0.09984279     0.24620
C1151       C  0.41435314  0.63337737  0.09595883    -0.23370
C1152       C  0.39892215  0.60929997  0.08576832     0.19520
F1153       F  0.36995948  0.61103756  0.08132779    -0.13330
F1154       F  0.39787838  0.56000507  0.07107646    -0.15690
F1155       F  0.45977653  0.65419838  0.10984697    -0.15690
F1156       F  0.48730139  0.60290637  0.10050117    -0.13330
C1157       C  0.56150332  0.56669704  0.10722234     0.24680
C1158       C  0.56008385  0.54124355  0.09094932    -0.23430
C1159       C  0.58534834  0.53018465  0.07830561     0.19590
C1160       C  0.61201515  0.54388262  0.08302475     0.24620
C1161       C  0.61357459  0.56943346  0.09976557    -0.23370
C1162       C  0.58767084  0.58102780  0.11099824     0.19520
F1163       F  0.58721389  0.60654686  0.12539935    -0.13330
F1164       F  0.53729669  0.57786093  0.11952693    -0.15690
F1165       F  0.63622647  0.53136177  0.07216146    -0.15690
F1166       F  0.58445119  0.50530572  0.06276013    -0.13330
C1167       C  0.51775300  0.39901000  0.07407412     0.24680
C1168       C  0.52207525  0.42176891  0.09372909    -0.23430
C1169       C  0.54118840  0.41771743  0.11695497     0.19590
C1170       C  0.55527335  0.39137816  0.12094492     0.24620
C1171       C  0.55098554  0.36829599  0.10151832    -0.23370
C1172       C  0.53203849  0.37248754  0.07793082     0.19520
F1173       F  0.52751501  0.35115879  0.05832290    -0.13330
F1174       F  0.49913856  0.40213795  0.05159163    -0.15690
F1175       F  0.57237919  0.38846880  0.14457545    -0.15690
F1176       F  0.54659421  0.43953063  0.13584426    -0.13330
C1177       C  0.91306454  0.40494293  0.54718741     0.24680
C1178       C  0.88858542  0.42041254  0.53753389    -0.23430
C1179       C  0.86093168  0.40808625  0.54164527     0.19590
C1180       C  0.85776722  0.38195295  0.55624052     0.24620
C1181       C  0.88202811  0.36716320  0.56669940    -0.23370
C1182       C  0.90976023  0.37839436  0.56148621     0.19520
F1183       F  0.93355624  0.36426261  0.57129296    -0.13330
F1184       F  0.94013235  0.41565093  0.54339348    -0.15690
F1185       F  0.83081094  0.37085280  0.55981863    -0.15690
F1186       F  0.83663140  0.42126612  0.53172846    -0.13330
C1187       C  0.88865358  0.58097451  0.43071522     0.24680
C1188       C  0.89524046  0.58017803  0.46023732    -0.23430
C1189       C  0.89768099  0.60603401  0.47580382     0.19590
C1190       C  0.89242212  0.63254389  0.46212783     0.24620
C1191       C  0.88471627  0.63341237  0.43261674    -0.23370
C1192       C  0.88368376  0.60733651  0.41690975     0.19520
F1193       F  0.87775314  0.60721167  0.38817194    -0.13330
F1194       F  0.88621025  0.55603392  0.41543398    -0.15690
F1195       F  0.89318012  0.65705814  0.47821685    -0.15690
F1196       F  0.90361198  0.60547619  0.50455293    -0.13330
C1197       C  0.90159492  0.47301348  0.39526458     0.24680
C1198       C  0.89228835  0.46038347  0.42120287    -0.23430
C1199       C  0.87950674  0.43297343  0.42079171     0.19590
C1200       C  0.87544016  0.41843122  0.39471942     0.24620
C1201       C  0.88329907  0.43146181  0.36826802    -0.23370
C1202       C  0.89689037  0.45882479  0.36889317     0.19520
F1203       F  0.90442514  0.47256270  0.34407389    -0.13330
F1204       F  0.91392088  0.49964859  0.39536052    -0.15690
F1205       F  0.86404653  0.39142675  0.39562333    -0.15690
F1206       F  0.87087519  0.42025660  0.44584505    -0.13330
C1207       C  0.87692506  0.52500136  0.60248784     0.24680
C1208       C  0.89266090  0.53838922  0.58019654    -0.23430
C1209       C  0.90514659  0.56562925  0.58490490     0.19590
C1210       C  0.90062980  0.57999909  0.61114554     0.24620
C1211       C  0.88433245  0.56688293  0.63315866    -0.23370
C1212       C  0.87312598  0.53901364  0.62899898     0.19520
F1213       F  0.85748551  0.52594324  0.65015754    -0.13330
F1214       F  0.86499551  0.49849443  0.59838858    -0.15690
F1215       F  0.91183785  0.60683854  0.61501169    -0.15690
F1216       F  0.92039277  0.57889023  0.56358996    -0.13330
C1217       C  0.39295321  0.92838374  0.44182925     0.24680
C1218       C  0.40114396  0.90898098  0.46383035    -0.23430
C1219       C  0.38201759  0.88664789  0.47177981     0.19590
C1220       C  0.35587295  0.88296304  0.45711337     0.24620
C1221       C  0.34838205  0.90155619  0.43438248    -0.23370
C1222       C  0.36672066  0.92461606  0.42716809     0.19520
F1223       F  0.35971108  0.94275962  0.40516839    -0.13330
F1224       F  0.41097259  0.94999789  0.43346087    -0.15690
F1225       F  0.33797184  0.86101516  0.46485860    -0.15690
F1226       F  0.38868489  0.86830677  0.49373803    -0.13330
C1227       C  0.59077560  0.91264678  0.58208198     0.24680
C1228       C  0.61523974  0.90287965  0.56691050    -0.23430
C1229       C  0.61348537  0.89867284  0.53684691     0.19590
C1230       C  0.58719111  0.90279626  0.52244251     0.24620
C1231       C  0.56266283  0.91206794  0.53775750    -0.23370
C1232       C  0.56473605  0.91757768  0.56751008     0.19520
F1233       F  0.54114399  0.92633927  0.58266397    -0.13330
F1234       F  0.59211034  0.91728393  0.61103768    -0.15690
F1235       F  0.58545304  0.89716532  0.49367820    -0.15690
F1236       F  0.63678354  0.88909294  0.52173335    -0.13330
C1237       C  0.54857499  0.91885986  0.41675973     0.24680
C1238       C  0.51930061  0.91149323  0.41971431    -0.23430
C1239       C  0.50415230  0.90033911  0.39593078     0.19590
C1240       C  0.51831122  0.89603548  0.36954500     0.24620
C1241       C  0.54800722  0.90198196  0.36698979    -0.23370
C1242       C  0.56297199  0.91374536  0.39064190     0.19520
F1243       F  0.59154114  0.92013642  0.38844473    -0.13330
F1244       F  0.56351798  0.92961679  0.43960323    -0.15690
F1245       F  0.50341894  0.88462156  0.34698567    -0.15690
F1246       F  0.47580281  0.89311064  0.39849907    -0.13330
C1247       C  0.41783492  0.92121008  0.58529263     0.24680
C1248       C  0.44569459  0.90991400  0.58098953    -0.23430
C1249       C  0.45954456  0.89511881  0.60361455     0.19590
C1250       C  0.44546034  0.89114971  0.63008364     0.24620
C1251       C  0.41704139  0.90115046  0.63388307    -0.23370
C1252       C  0.40339751  0.91644306  0.61147202     0.19520
F1253       F  0.37604303  0.92655393  0.61492575    -0.13330
F1254       F  0.40407030  0.93547202  0.56362497    -0.15690
F1255       F  0.45900977  0.87633851  0.65151660    -0.15690
F1256       F  0.48659037  0.88426384  0.59990279    -0.13330
C1257       C  0.06965743  0.60543288  0.52422654     0.24680
C1258       C  0.07210037  0.57963406  0.53995618    -0.23430
C1259       C  0.07837312  0.58056856  0.56953118     0.19590
C1260       C  0.08276711  0.60699467  0.58331542     0.24620
C1261       C  0.08158743  0.63301359  0.56752233    -0.23370
C1262       C  0.07445816  0.63202635  0.53787627     0.19520
F1263       F  0.07365418  0.65653267  0.52173144    -0.13330
F1264       F  0.06401295  0.60474992  0.49541732    -0.15690
F1265       F  0.08808052  0.60701689  0.61217601    -0.15690
F1266       F  0.08077089  0.55572957  0.58497859    -0.13330
C1267       C  0.06303609  0.39615673  0.47307735     0.24680
C1268       C  0.07221367  0.42193678  0.46007472    -0.23430
C1269       C  0.08508090  0.42122341  0.43268684     0.19590
C1270       C  0.08934443  0.39499429  0.41851807     0.24620
C1271       C  0.08162621  0.36871419  0.43194126    -0.23370
C1272       C  0.06796431  0.36963695  0.45928141     0.19520
F1273       F  0.06062180  0.34498141  0.47339626    -0.13330
F1274       F  0.05071845  0.39655598  0.49974261    -0.15690
F1275       F  0.10082182  0.39558026  0.39151406    -0.15690
F1276       F  0.09365677  0.44612368  0.41965939    -0.13330
C1277       C  0.05640244  0.57068796  0.38290484     0.24680
C1278       C  0.08138642  0.56601935  0.36629587    -0.23430
C1279       C  0.10222290  0.54620168  0.37582105     0.19590
C1280       C  0.09871231  0.53194497  0.40220780     0.24620
C1281       C  0.07439675  0.53756961  0.41973019    -0.23370
C1282       C  0.05289948  0.55658274  0.40952060     0.19520
F1283       F  0.02925135  0.56261080  0.42586607    -0.13330
F1284       F  0.03608182  0.58989484  0.37394406    -0.15690
F1285       F  0.11914602  0.51258074  0.41060263    -0.15690
F1286       F  0.12606400  0.54073797  0.35953971    -0.13330
C1287       C  0.06636023  0.47479945  0.60571725     0.24680
C1288       C  0.07025375  0.45998746  0.57955927    -0.23430
C1289       C  0.07783611  0.43067927  0.57994828     0.19590
C1290       C  0.08228112  0.41638729  0.60616496     0.24620
C1291       C  0.07975746  0.43137237  0.63255844    -0.23370
C1292       C  0.07122749  0.46066644  0.63209536     0.19520
F1293       F  0.06913022  0.47610201  0.65696335    -0.13330
F1294       F  0.05918002  0.50324794  0.60567245    -0.15690
F1295       F  0.08898508  0.38782397  0.60561944    -0.15690
F1296       F  0.08140601  0.41599888  0.55477343    -0.13330
loop_ 
_geom_bond_atom_site_label_1 
_geom_bond_atom_site_label_2 
_geom_bond_distance 
_geom_bond_site_symmetry_2 
_ccdc_geom_bond_type 
O1           Cu9   2.014       .  S
O1           C11   1.277       .  A
O2           Cu9   2.019       .  S
O2           C12   1.278       .  A
O3           Cu9   2.022       .  S
O3           C13   1.279       .  A
O4           Cu9   2.023       .  S
O4           C14   1.280       .  A
O5          Cu10   1.991       .  S
O5           C14   1.276       .  A
O6          Cu10   1.994       .  S
O6           C13   1.275       .  A
O7          Cu10   1.986       .  S
O7           C12   1.275       .  A
O8          Cu10   1.993       .  S
O8           C11   1.275       .  A
Cu9         Cu10   2.377       .  S
C11        C1258   1.463       .  S
C12        C1268   1.463       .  S
C13        C1288   1.466       .  S
C14        C1281   1.479       .  S
O15         Cu23   1.996       .  S
O15          C25   1.276       .  A
O16         Cu23   1.994       .  S
O16          C26   1.275       .  A
O17         Cu23   1.996       .  S
O17          C27   1.275       .  A
O18         Cu23   1.997       .  S
O18          C28   1.277       .  A
O19         Cu24   2.021       .  S
O19          C28   1.279       .  A
O20         Cu24   2.021       .  S
O20          C27   1.279       .  A
O21         Cu24   2.017       .  S
O21          C26   1.278       .  A
O22         Cu24   2.015       .  S
O22          C25   1.278       .  A
Cu23        Cu24   2.373       .  S
C25        C1248   1.468       .  S
C26        C1238   1.465       .  S
C27        C1231   1.467       .  S
C28        C1218   1.479       .  S
O29         Cu37   1.989       .  S
O29          C39   1.275       .  A
O30         Cu37   1.976       .  S
O30          C40   1.274       .  A
O31         Cu37   1.994       .  S
O31          C41   1.276       .  A
O32         Cu37   1.991       .  S
O32          C42   1.275       .  A
O33         Cu38   2.019       .  S
O33          C42   1.278       .  A
O34         Cu38   2.018       .  S
O34          C41   1.278       .  A
O35         Cu38   2.029       .  S
O35          C40   1.281       .  A
O36         Cu38   2.017       .  S
O36          C39   1.278       .  A
Cu37        Cu38   2.376       .  S
C39        C1188   1.462       .  S
C40        C1178   1.486       .  S
C41        C1208   1.467       .  S
C42        C1198   1.465       .  S
O43         Cu51   2.029       .  S
O43          C53   1.280       .  A
O44         Cu51   2.022       .  S
O44          C54   1.279       .  A
O45         Cu51   2.017       .  S
O45          C55   1.278       .  A
O46         Cu51   2.025       .  S
O46          C56   1.279       .  A
O47         Cu52   1.986       .  S
O47          C56   1.275       .  A
O48         Cu52   1.995       .  S
O48          C55   1.275       .  A
O49         Cu52   1.993       .  S
O49          C54   1.277       .  A
O50         Cu52   1.989       .  S
O50          C53   1.274       .  A
Cu51        Cu52   2.377       .  S
C53        C1148   1.467       .  S
C54        C1168   1.478       .  S
C55        C1141   1.464       .  S
C56        C1158   1.469       .  S
N57          N58   1.322       .  A
N57          C61   1.345       .  A
N57         Cu65   2.065       .  S
N58          C59   1.344       .  A
N58         Cu64   2.080       .  S
C59          C60   1.384       .  A
C59          H62   1.082       .  S
C60        C1131   1.474       .  S
C60          C61   1.381       .  A
C61          H63   1.082       .  S
Cu64         N67   2.080       .  S
Cu65         N75   2.065       .  S
Cu66         N68   2.077       .  S
Cu66         N74   2.077       .  S
N67          N68   1.322       .  A
N67          C71   1.346       .  A
N68          C69   1.346       .  A
C69          C70   1.385       .  A
C69          H72   1.082       .  S
C70         C810   1.479       .  S
C70          C71   1.385       .  A
C71          H73   1.082       .  S
N74          N75   1.322       .  A
N74          C78   1.344       .  A
N75          C76   1.344       .  A
C76          C77   1.382       .  A
C76          H79   1.082       .  S
C77        C1138   1.476       .  S
C77          C78   1.384       .  A
C78          H80   1.082       .  S
N81          N82   1.321       .  A
N81          C85   1.345       .  A
N81         Cu89   2.069       .  S
N82          C83   1.343       .  A
N82         Cu88   2.075       .  S
C83          C84   1.387       .  A
C83          H86   1.082       .  S
C84        C1291   1.484       .  S
C84          C85   1.386       .  A
C85          H87   1.082       .  S
Cu88         N91   2.075       .  S
Cu89         N99   2.069       .  S
Cu90         N92   2.081       .  S
Cu90         N98   2.081       .  S
N91          N92   1.322       .  A
N91          C95   1.346       .  A
N92          C93   1.346       .  A
C93          C94   1.386       .  A
C93          H96   1.082       .  S
C94         C781   1.479       .  S
C94          C95   1.384       .  A
C95          H97   1.082       .  S
N98          N99   1.323       .  A
N98         C102   1.346       .  A
N99         C100   1.345       .  A
C100        C101   1.380       .  A
C100        H103   1.083       .  S
C101       C1121   1.471       .  S
C101        C102   1.382       .  A
C102        H104   1.082       .  S
N105        N106   1.321       .  A
N105        C109   1.346       .  A
N105       Cu113   2.070       .  S
N106        C107   1.342       .  A
N106       Cu112   2.074       .  S
C107        C108   1.388       .  A
C107        H110   1.081       .  S
C108       C1201   1.488       .  S
C108        C109   1.388       .  A
C109        H111   1.081       .  S
Cu112       N115   2.074       .  S
Cu113       N123   2.070       .  S
Cu114       N116   2.075       .  S
Cu114       N122   2.076       .  S
N115        N116   1.321       .  A
N115        C119   1.346       .  A
N116        C117   1.345       .  A
C117        C118   1.385       .  A
C117        H120   1.082       .  S
C118        C747   1.477       .  S
C118        C119   1.384       .  A
C119        H121   1.082       .  S
N122        N123   1.322       .  A
N122        C126   1.343       .  A
N123        C124   1.345       .  A
C124        C125   1.385       .  A
C124        H127   1.082       .  S
C125       C1111   1.480       .  S
C125        C126   1.385       .  A
C126        H128   1.082       .  S
O129       Cu137   2.025   1_456  S
O129        C139   1.280       .  A
O130       Cu137   2.022       .  S
O130        C140   1.279       .  A
O131       Cu137   2.014   1_455  S
O131        C141   1.277       .  A
O132       Cu137   2.023   1_556  S
O132        C142   1.278       .  A
O133       Cu138   1.998       .  S
O133        C142   1.276       .  A
O134       Cu138   2.004   1_454  S
O134        C141   1.277       .  A
O135       Cu138   2.001   1_554  S
O135        C140   1.276       .  A
O136       Cu138   1.993   1_455  S
O136        C139   1.275       .  A
Cu137      Cu138   2.378   1_554  S
C139       C1118   1.470       .  S
C140       C1108   1.468       .  S
C141       C1128   1.466       .  S
C142       C1098   1.468       .  S
N143        N144   1.319       .  A
N143        C147   1.346       .  A
N143       Cu151   2.068       .  S
N144        C145   1.339       .  A
N144       Cu150   2.069       .  S
C145        C146   1.389       .  A
C145        H148   1.080       .  S
C146       C1161   1.491       .  S
C146        C147   1.390       .  A
C147        H149   1.081       .  S
Cu150       N153   2.069       .  S
Cu151       N161   2.068       .  S
Cu152       N154   2.081       .  S
Cu152       N160   2.082       .  S
N153        N154   1.321       .  A
N153        C157   1.346       .  A
N154        C155   1.346       .  A
C155        C156   1.386       .  A
C155        H158   1.082       .  S
C156        C758   1.477       .  S
C156        C157   1.383       .  A
C157        H159   1.082       .  S
N160        N161   1.323       .  A
N160        C164   1.345       .  A
N161        C162   1.344       .  A
C162        C163   1.382       .  A
C162        H165   1.082       .  S
C163       C1088   1.478       .  S
C163        C164   1.385       .  A
C164        H166   1.082       .  S
N167        N168   1.323       .  A
N167        C171   1.345       .  A
N167       Cu175   2.065       .  S
N168        C169   1.345       .  A
N168       Cu174   2.080       .  S
C169        C170   1.382       .  A
C169        H172   1.082       .  S
C170       C1211   1.468       .  S
C170        C171   1.379       .  A
C171        H173   1.083       .  S
Cu174       N177   2.080       .  S
Cu175       N185   2.065       .  S
Cu176       N178   2.079       .  S
Cu176       N184   2.079       .  S
N177        N178   1.322       .  A
N177        C181   1.346       .  A
N178        C179   1.346       .  A
C179        C180   1.385       .  A
C179        H182   1.082       .  S
C180        C801   1.480       .  S
C180        C181   1.385       .  A
C181        H183   1.082       .  S
N184        N185   1.322       .  A
N184        C188   1.343       .  A
N185        C186   1.346       .  A
C186        C187   1.384       .  A
C186        H189   1.082       .  S
C187       C1078   1.481       .  S
C187        C188   1.386       .  A
C188        H190   1.082       .  S
N191        N192   1.323       .  A
N191        C195   1.346       .  A
N191       Cu199   2.071       .  S
N192        C193   1.344       .  A
N192       Cu198   2.077       .  S
C193        C194   1.381       .  A
C193        H196   1.082       .  S
C194       C1278   1.469       .  S
C194        C195   1.380       .  A
C195        H197   1.082       .  S
Cu198       N201   2.076       .  S
Cu199       N209   2.071       .  S
Cu200       N202   2.077       .  S
Cu200       N208   2.077       .  S
N201        N202   1.322       .  A
N201        C205   1.346       .  A
N202        C203   1.346       .  A
C203        C204   1.385       .  A
C203        H206   1.082       .  S
C204        C765   1.478       .  S
C204        C205   1.385       .  A
C205        H207   1.082       .  S
N208        N209   1.322       .  A
N208        C212   1.344       .  A
N209        C210   1.345       .  A
C210        C211   1.386       .  A
C210        H213   1.082       .  S
C211       C1071   1.483       .  S
C211        C212   1.386       .  A
C212        H214   1.082       .  S
O215       Cu223   2.024       .  S
O215        C225   1.279       .  A
O216       Cu223   2.020   1_454  S
O216        C226   1.278       .  A
O217       Cu223   2.033   1_554  S
O217        C227   1.280       .  A
O218       Cu223   2.026   1_455  S
O218        C228   1.280       .  A
O219       Cu224   1.989   1_456  S
O219        C228   1.276       .  A
O220       Cu224   1.993       .  S
O220        C227   1.275       .  A
O221       Cu224   2.000       .  S
O221        C226   1.276   1_655  A
O222       Cu224   2.000   1_556  S
O222        C225   1.276       .  A
Cu223      Cu224   2.375   1_556  S
C225       C1081   1.469       .  S
C226       C1068   1.467       .  S
C227       C1091   1.470       .  S
C228       C1058   1.486       .  S
N229        N230   1.320       .  A
N229        C233   1.346       .  A
N229       Cu237   2.068       .  S
N230        C231   1.340       .  A
N230       Cu236   2.071       .  S
C231        C232   1.389       .  A
C231        H234   1.081       .  S
C232       C1048   1.489       .  S
C232        C233   1.389       .  A
C233        H235   1.081       .  S
Cu236       N239   2.070       .  S
Cu237       N247   2.068       .  S
Cu238       N240   2.078       .  S
Cu238       N246   2.079       .  S
N239        N240   1.321       .  A
N239        C243   1.345       .  A
N240        C241   1.346       .  A
C241        C242   1.385       .  A
C241        H244   1.082       .  S
C242        C792   1.476       .  S
C242        C243   1.383       .  A
C243        H245   1.083       .  S
N246        N247   1.322       .  A
N246        C250   1.343       .  A
N247        C248   1.345       .  A
C248        C249   1.385       .  A
C248        H251   1.082       .  S
C249       C1101   1.484       .  S
C249        C250   1.387       .  A
C250        H252   1.082       .  S
N253        N254   1.322       .  A
N253        C257   1.347       .  A
N253       Cu261   2.071       .  S
N254        C255   1.342       .  A
N254       Cu260   2.076       .  S
C255        C256   1.385       .  A
C255        H258   1.082       .  S
C256       C1061   1.481       .  S
C256        C257   1.385       .  A
C257        H259   1.082       .  S
Cu260       N263   2.076       .  S
Cu261       N271   2.070       .  S
Cu262       N264   2.078       .  S
Cu262       N270   2.078       .  S
N263        N264   1.321       .  A
N263        C267   1.345       .  A
N264        C265   1.347       .  A
C265        C266   1.386       .  A
C265        H268   1.082       .  S
C266        C774   1.481       .  S
C266        C267   1.386       .  A
C267        H269   1.082       .  S
N270        N271   1.324       .  A
N270        C274   1.343       .  A
N271        C272   1.346       .  A
C272        C273   1.380       .  A
C272        H275   1.082       .  S
C273       C1038   1.470       .  S
C273        C274   1.382       .  A
C274        H276   1.083       .  S
O277       Cu285   2.024       .  S
O277        C287   1.279       .  A
O278       Cu285   2.029       .  S
O278        C288   1.281       .  A
O279       Cu285   2.022       .  S
O279        C289   1.278       .  A
O280       Cu285   2.017       .  S
O280        C290   1.278       .  A
O281       Cu286   2.000       .  S
O281        C290   1.277       .  A
O282       Cu286   1.995       .  S
O282        C289   1.275       .  A
O283       Cu286   1.981       .  S
O283        C288   1.275       .  A
O284       Cu286   1.985       .  S
O284        C287   1.275       .  A
Cu285      Cu286   2.375       .  S
C287       C1051   1.467       .  S
C288       C1041   1.484       .  S
C289       C1018   1.465       .  S
C290       C1028   1.475       .  S
N291        N292   1.321       .  A
N291        C295   1.347       .  A
N291       Cu299   2.078       .  S
N292        C293   1.341       .  A
N292       Cu298   2.074       .  S
C293        C294   1.388       .  A
C293        H296   1.083       .  S
C294       C1171   1.491       .  S
C294        C295   1.390       .  A
C295        H297   1.082       .  S
Cu298       N301   2.074       .  S
Cu299       N309   2.078       .  S
Cu300       N302   2.074       .  S
Cu300       N308   2.075       .  S
N301        N302   1.321       .  A
N301        C305   1.345       .  A
N302        C303   1.346       .  A
C303        C304   1.386       .  A
C303        H306   1.082       .  S
C304        C745   1.479       .  S
C304        C305   1.385       .  A
C305        H307   1.082       .  S
N308        N309   1.324       .  A
N308        C312   1.343       .  A
N309        C310   1.347       .  A
C310        C311   1.382       .  A
C310        H313   1.082       .  S
C311       C1008   1.471       .  S
C311        C312   1.380       .  A
C312        H314   1.083       .  S
N315        N316   1.323       .  A
N315        C319   1.345       .  A
N315       Cu323   2.068       .  S
N316        C317   1.345       .  A
N316       Cu322   2.079       .  S
C317        C318   1.381       .  A
C317        H320   1.082       .  S
C318       C1031   1.468       .  S
C318        C319   1.380       .  A
C319        H321   1.083       .  S
Cu322       N325   2.079       .  S
Cu323       N333   2.068       .  S
Cu324       N326   2.081       .  S
Cu324       N332   2.081       .  S
N325        N326   1.323       .  A
N325        C329   1.346       .  A
N326        C327   1.346       .  A
C327        C328   1.385       .  A
C327        H330   1.082       .  S
C328        C799   1.480       .  S
C328        C329   1.385       .  A
C329        H331   1.082       .  S
N332        N333   1.322       .  A
N332        C336   1.345       .  A
N333        C334   1.344       .  A
C334        C335   1.383       .  A
C334        H337   1.082       .  S
C335        C998   1.480       .  S
C335        C336   1.386       .  A
C336        H338   1.082       .  S
N339        N340   1.320       .  A
N339        C343   1.346       .  A
N339       Cu347   2.065       .  S
N340        C341   1.341       .  A
N340       Cu346   2.074       .  S
C341        C342   1.388       .  A
C341        H344   1.081       .  S
C342        C988   1.486       .  S
C342        C343   1.387       .  A
C343        H345   1.082       .  S
Cu346       N349   2.074       .  S
Cu347       N357   2.065       .  S
Cu348       N350   2.083       .  S
Cu348       N356   2.083       .  S
N349        N350   1.322       .  A
N349        C353   1.346       .  A
N350        C351   1.346       .  A
C351        C352   1.386       .  A
C351        H354   1.082       .  S
C352        C754   1.479       .  S
C352        C353   1.384       .  A
C353        H355   1.082       .  S
N356        N357   1.324       .  A
N356        C360   1.345       .  A
N357        C358   1.344       .  A
C358        C359   1.380       .  A
C358        H361   1.083       .  S
C359       C1241   1.472       .  S
C359        C360   1.383       .  A
C360        H362   1.082       .  S
O363       Cu371   1.999   1_545  S
O363        C373   1.277       .  A
O364       Cu371   1.996   1_556  S
O364        C374   1.275       .  A
O365       Cu371   1.980   1_546  S
O365        C375   1.275       .  A
O366       Cu371   1.982       .  S
O366        C376   1.274       .  A
O367       Cu372   2.031   1_564  S
O367        C376   1.280       .  A
O368       Cu372   2.030       .  S
O368        C375   1.281       .  A
O369       Cu372   2.023   1_565  S
O369        C374   1.278       .  A
O370       Cu372   2.018   1_554  S
O370        C373   1.279       .  A
Cu371      Cu372   2.373   1_564  S
C373       C1011   1.483       .  S
C374       C1001   1.467       .  S
C375        C978   1.487       .  S
C376        C991   1.467       .  S
N377        N378   1.322       .  A
N377        C381   1.344       .  A
N377       Cu385   2.063       .  S
N378        C379   1.345       .  A
N378       Cu384   2.079       .  S
C379        C380   1.385       .  A
C379        H382   1.082       .  S
C380        C968   1.475       .  S
C380        C381   1.381       .  A
C381        H383   1.083       .  S
Cu384       N387   2.079       .  S
Cu385       N395   2.063       .  S
Cu386       N388   2.081       .  S
Cu386       N394   2.081       .  S
N387        N388   1.323       .  A
N387        C391   1.346       .  A
N388        C389   1.346       .  A
C389        C390   1.385       .  A
C389        H392   1.082       .  S
C390        C763   1.480       .  S
C390        C391   1.385       .  A
C391        H393   1.082       .  S
N394        N395   1.322       .  A
N394        C398   1.345       .  A
N395        C396   1.344       .  A
C396        C397   1.380       .  A
C396        H399   1.083       .  S
C397       C1151   1.473       .  S
C397        C398   1.384       .  A
C398        H400   1.082       .  S
N401        N402   1.322       .  A
N401        C405   1.345       .  A
N401       Cu409   2.071       .  S
N402        C403   1.344       .  A
N402       Cu408   2.079       .  S
C403        C404   1.386       .  A
C403        H406   1.082       .  S
C404       C1021   1.482       .  S
C404        C405   1.385       .  A
C405        H407   1.082       .  S
Cu408       N411   2.079       .  S
Cu409       N419   2.071       .  S
Cu410       N412   2.074       .  S
Cu410       N418   2.074       .  S
N411        N412   1.322       .  A
N411        C415   1.346       .  A
N412        C413   1.346       .  A
C413        C414   1.384       .  A
C413        H416   1.082       .  S
C414        C783   1.478       .  S
C414        C415   1.385       .  A
C415        H417   1.082       .  S
N418        N419   1.323       .  A
N418        C422   1.343       .  A
N419        C420   1.346       .  A
C420        C421   1.381       .  A
C420        H423   1.082       .  S
C421        C958   1.470       .  S
C421        C422   1.381       .  A
C422        H424   1.082       .  S
N425        N426   1.320       .  A
N425        C429   1.346       .  A
N425       Cu433   2.070       .  S
N426        C427   1.340       .  A
N426       Cu432   2.069       .  S
C427        C428   1.388       .  A
C427        H430   1.081       .  S
C428        C951   1.490       .  S
C428        C429   1.390       .  A
C429        H431   1.081       .  S
Cu432       N435   2.069       .  S
Cu433       N443   2.070       .  S
Cu434       N436   2.081       .  S
Cu434       N442   2.082       .  S
N435        N436   1.321       .  A
N435        C439   1.345       .  A
N436        C437   1.346       .  A
C437        C438   1.386       .  A
C437        H440   1.082       .  S
C438        C776   1.477       .  S
C438        C439   1.383       .  A
C439        H441   1.082       .  S
N442        N443   1.324       .  A
N442        C446   1.345       .  A
N443        C444   1.345       .  A
C444        C445   1.380       .  A
C444        H447   1.082       .  S
C445       C1251   1.470       .  S
C445        C446   1.382       .  A
C446        H448   1.082       .  S
O449       Cu457   1.994       .  S
O449        C459   1.275       .  A
O450       Cu457   1.994   1_546  S
O450        C460   1.277       .  A
O451       Cu457   1.990   1_556  S
O451        C461   1.275       .  A
O452       Cu457   1.991   1_545  S
O452        C462   1.275       .  A
O453       Cu458   2.020   1_554  S
O453        C462   1.278       .  A
O454       Cu458   2.022   1_565  S
O454        C461   1.279       .  A
O455       Cu458   2.020       .  S
O455        C460   1.279       .  A
O456       Cu458   2.024   1_564  S
O456        C459   1.279       .  A
Cu457      Cu458   2.376   1_564  S
C459        C971   1.466       .  S
C460        C961   1.483       .  S
C461        C948   1.469       .  S
C462        C938   1.464       .  S
N463        N464   1.322       .  A
N463        C467   1.345       .  A
N463       Cu471   2.066       .  S
N464        C465   1.346       .  A
N464       Cu470   2.082       .  S
C465        C466   1.384       .  A
C465        H468   1.082       .  S
C466       C1228   1.474       .  S
C466        C467   1.381       .  A
C467        H469   1.082       .  S
Cu470       N473   2.082       .  S
Cu471       N481   2.066       .  S
Cu472       N474   2.079       .  S
Cu472       N480   2.079       .  S
N473        N474   1.323       .  A
N473        C477   1.346       .  A
N474        C475   1.346       .  A
C475        C476   1.385       .  A
C475        H478   1.082       .  S
C476        C803   1.481       .  S
C476        C477   1.386       .  A
C477        H479   1.082       .  S
N480        N481   1.322       .  A
N480        C484   1.345       .  A
N481        C482   1.344       .  A
C482        C483   1.380       .  A
C482        H485   1.082       .  S
C483        C928   1.471       .  S
C483        C484   1.383       .  A
C484        H486   1.082       .  S
N487        N488   1.323       .  A
N487        C491   1.346       .  A
N487       Cu495   2.066       .  S
N488        C489   1.342       .  A
N488       Cu494   2.074       .  S
C489        C490   1.382       .  A
C489        H492   1.082       .  S
C490       C1181   1.472       .  S
C490        C491   1.381       .  A
C491        H493   1.083       .  S
Cu494       N497   2.073       .  S
Cu495       N505   2.065       .  S
Cu496       N498   2.071       .  S
Cu496       N504   2.071       .  S
N497        N498   1.321       .  A
N497        C501   1.345       .  A
N498        C499   1.346       .  A
C499        C500   1.384       .  A
C499        H502   1.082       .  S
C500        C794   1.475       .  S
C500        C501   1.384       .  A
C501        H503   1.082       .  S
N504        N505   1.320       .  A
N504        C508   1.340       .  A
N505        C506   1.345       .  A
C506        C507   1.389       .  A
C506        H509   1.081       .  S
C507        C918   1.490       .  S
C507        C508   1.389       .  A
C508        H510   1.080       .  S
N511        N512   1.321       .  A
N511        C515   1.345       .  A
N511       Cu519   2.064       .  S
N512        C513   1.342       .  A
N512       Cu518   2.071       .  S
C513        C514   1.386       .  A
C513        H516   1.082       .  S
C514       C1261   1.481       .  S
C514        C515   1.385       .  A
C515        H517   1.082       .  S
Cu518       N521   2.071       .  S
Cu519       N529   2.064       .  S
Cu520       N522   2.078       .  S
Cu520       N528   2.078       .  S
N521        N522   1.322       .  A
N521        C525   1.345       .  A
N522        C523   1.346       .  A
C523        C524   1.385       .  A
C523        H526   1.082       .  S
C524        C772   1.476       .  S
C524        C525   1.383       .  A
C525        H527   1.082       .  S
N528        N529   1.323       .  A
N528        C532   1.345       .  A
N529        C530   1.344       .  A
C530        C531   1.378       .  A
C530        H533   1.082       .  S
C531        C908   1.465       .  S
C531        C532   1.381       .  A
C532        H534   1.082       .  S
O535       Cu543   1.994       .  S
O535        C545   1.275       .  A
O536       Cu543   2.000   1_445  S
O536        C546   1.276       .  A
O537       Cu543   1.982   1_545  S
O537        C547   1.274       .  A
O538       Cu543   1.992       .  S
O538        C548   1.276   1_655  A
O539       Cu544   2.016   1_455  S
O539        C548   1.279       .  A
O540       Cu544   2.026   1_545  S
O540        C547   1.279       .  A
O541       Cu544   2.014   1_445  S
O541        C546   1.277       .  A
O542       Cu544   2.025       .  S
O542        C545   1.279       .  A
Cu543      Cu544   2.378       .  S
C545        C931   1.469       .  S
C546        C898   1.465       .  S
C547        C921   1.466       .  S
C548        C911   1.472       .  S
N549        N550   1.322       .  A
N549        C553   1.346       .  A
N549       Cu557   2.067       .  S
N550        C551   1.342       .  A
N550       Cu556   2.075       .  S
C551        C552   1.384       .  A
C551        H554   1.082       .  S
C552        C981   1.476       .  S
C552        C553   1.383       .  A
C553        H555   1.082       .  S
Cu556       N559   2.075       .  S
Cu557       N567   2.067       .  S
Cu558       N560   2.081       .  S
Cu558       N566   2.082       .  S
N559        N560   1.322       .  A
N559        C563   1.345       .  A
N560        C561   1.347       .  A
C561        C562   1.386       .  A
C561        H564   1.082       .  S
C562        C790   1.480       .  S
C562        C563   1.385       .  A
C563        H565   1.083       .  S
N566        N567   1.324       .  A
N566        C570   1.344       .  A
N567        C568   1.345       .  A
C568        C569   1.379       .  A
C568        H571   1.082       .  S
C569        C888   1.469       .  S
C569        C570   1.382       .  A
C570        H572   1.082       .  S
N573        N574   1.323       .  A
N573        C577   1.345       .  A
N573       Cu581   2.066       .  S
N574        C575   1.345       .  A
N574       Cu580   2.081       .  S
C575        C576   1.382       .  A
C575        H578   1.082       .  S
C576        C881   1.467       .  S
C576        C577   1.378       .  A
C577        H579   1.082       .  S
Cu580       N583   2.081       .  S
Cu581       N591   2.065       .  S
Cu582       N584   2.072       .  S
Cu582       N590   2.072       .  S
N583        N584   1.322       .  A
N583        C587   1.346       .  A
N584        C585   1.345       .  A
C585        C586   1.383       .  A
C585        H588   1.082       .  S
C586        C812   1.477       .  S
C586        C587   1.385       .  A
C587        H589   1.082       .  S
N590        N591   1.321       .  A
N590        C594   1.342       .  A
N591        C592   1.344       .  A
C592        C593   1.386       .  A
C592        H595   1.082       .  S
C593        C941   1.484       .  S
C593        C594   1.387       .  A
C594        H596   1.082       .  S
N597        N598   1.323       .  A
N597        C601   1.345       .  A
N597       Cu605   2.066       .  S
N598        C599   1.345       .  A
N598       Cu604   2.081       .  S
C599        C600   1.382       .  A
C599        H602   1.082       .  S
C600        C868   1.468       .  S
C600        C601   1.379       .  A
C601        H603   1.082       .  S
Cu604       N607   2.081       .  S
Cu605       N615   2.066       .  S
Cu606       N608   2.078       .  S
Cu606       N614   2.079       .  S
N607        N608   1.322       .  A
N607        C611   1.347       .  A
N608        C609   1.346       .  A
C609        C610   1.385       .  A
C609        H612   1.082       .  S
C610        C785   1.480       .  S
C610        C611   1.385       .  A
C611        H613   1.082       .  S
N614        N615   1.321       .  A
N614        C618   1.343       .  A
N615        C616   1.345       .  A
C616        C617   1.387       .  A
C616        H619   1.082       .  S
C617        C901   1.487       .  S
C617        C618   1.389       .  A
C618        H620   1.081       .  S
O621       Cu629   1.991       .  S
O621        C631   1.276       .  A
O622       Cu629   1.991       .  S
O622        C632   1.276       .  A
O623       Cu629   1.981       .  S
O623        C633   1.275       .  A
O624       Cu629   1.976       .  S
O624        C634   1.274       .  A
O625       Cu630   2.035       .  S
O625        C634   1.281       .  A
O626       Cu630   2.030       .  S
O626        C633   1.281       .  A
O627       Cu630   2.022       .  S
O627        C632   1.279       .  A
O628       Cu630   2.021       .  S
O628        C631   1.279       .  A
Cu629      Cu630   2.368       .  S
C631        C891   1.482       .  S
C632        C878   1.472       .  S
C633        C871   1.481       .  S
C634        C858   1.488       .  S
N635        N636   1.323       .  A
N635        C639   1.344       .  A
N635       Cu643   2.069       .  S
N636        C637   1.345       .  A
N636       Cu642   2.077       .  S
C637        C638   1.384       .  A
C637        H640   1.082       .  S
C638        C848   1.475       .  S
C638        C639   1.382       .  A
C639        H641   1.082       .  S
Cu642       N645   2.078       .  S
Cu643       N653   2.069       .  S
Cu644       N646   2.080       .  S
Cu644       N652   2.080       .  S
N645        N646   1.322       .  A
N645        C649   1.346       .  A
N646        C647   1.346       .  A
C647        C648   1.385       .  A
C647        H650   1.082       .  S
C648        C767   1.480       .  S
C648        C649   1.385       .  A
C649        H651   1.083       .  S
N652        N653   1.323       .  A
N652        C656   1.345       .  A
N653        C654   1.346       .  A
C654        C655   1.380       .  A
C654        H657   1.082       .  S
C655       C1221   1.469       .  S
C655        C656   1.382       .  A
C656        H658   1.082       .  S
N659        N660   1.320       .  A
N659        C663   1.345       .  A
N659       Cu667   2.070       .  S
N660        C661   1.340       .  A
N660       Cu666   2.068       .  S
C661        C662   1.389       .  A
C661        H664   1.081       .  S
C662        C838   1.491       .  S
C662        C663   1.390       .  A
C663        H665   1.081       .  S
Cu666       N669   2.067       .  S
Cu667       N677   2.070       .  S
Cu668       N670   2.073       .  S
Cu668       N676   2.074       .  S
N669        N670   1.321       .  A
N669        C673   1.344       .  A
N670        C671   1.345       .  A
C671        C672   1.384       .  A
C671        H674   1.082       .  S
C672        C756   1.473       .  S
C672        C673   1.382       .  A
C673        H675   1.082       .  S
N676        N677   1.322       .  A
N676        C680   1.342       .  A
N677        C678   1.345       .  A
C678        C679   1.385       .  A
C678        H681   1.082       .  S
C679       C1191   1.482       .  S
C679        C680   1.386       .  A
C680        H682   1.082       .  S
N683        N684   1.322       .  A
N683        C687   1.347       .  A
N683       Cu691   2.070       .  S
N684        C685   1.342       .  A
N684       Cu690   2.075       .  S
C685        C686   1.384       .  A
C685        H688   1.082       .  S
C686        C861   1.479       .  S
C686        C687   1.384       .  A
C687        H689   1.082       .  S
Cu690       N693   2.075       .  S
Cu691       N701   2.070       .  S
Cu692       N694   2.077       .  S
Cu692       N700   2.077       .  S
N693        N694   1.321       .  A
N693        C697   1.346       .  A
N694        C695   1.346       .  A
C695        C696   1.385       .  A
C695        H698   1.082       .  S
C696        C749   1.479       .  S
C696        C697   1.385       .  A
C697        H699   1.082       .  S
N700        N701   1.322       .  A
N700        C704   1.342       .  A
N701        C702   1.346       .  A
C702        C703   1.386       .  A
C702        H705   1.082       .  S
C703        C831   1.484       .  S
C703        C704   1.387       .  A
C704        H706   1.082       .  S
N707        N708   1.320       .  A
N707        C711   1.345       .  A
N707       Cu715   2.066       .  S
N708        C709   1.341       .  A
N708       Cu714   2.070       .  S
C709        C710   1.388       .  A
C709        H712   1.081       .  S
C710       C1271   1.486       .  S
C710        C711   1.387       .  A
C711        H713   1.081       .  S
Cu714       N717   2.070       .  S
Cu715       N725   2.066       .  S
Cu716       N718   2.075       .  S
Cu716       N724   2.076       .  S
N717        N718   1.321       .  A
N717        C721   1.345       .  A
N718        C719   1.346       .  A
C719        C720   1.384       .  A
C719        H722   1.082       .  S
C720        C808   1.474       .  S
C720        C721   1.383       .  A
C721        H723   1.082       .  S
N724        N725   1.322       .  A
N724        C728   1.342       .  A
N725        C726   1.345       .  A
C726        C727   1.385       .  A
C726        H729   1.082       .  S
C727        C818   1.483       .  S
C727        C728   1.387       .  A
C728        H730   1.082       .  S
O731       Cu739   1.999   1_465  S
O731        C741   1.276       .  A
O732       Cu739   1.994       .  S
O732        C742   1.275       .  A
O733       Cu739   1.991   1_455  S
O733        C743   1.275       .  A
O734       Cu739   1.995   1_565  S
O734        C744   1.276       .  A
O735       Cu740   2.015       .  S
O735        C744   1.278       .  A
O736       Cu740   2.027   1_445  S
O736        C743   1.279       .  A
O737       Cu740   2.021   1_545  S
O737        C742   1.278       .  A
O738       Cu740   2.021   1_455  S
O738        C741   1.279       .  A
Cu739      Cu740   2.379   1_545  S
C741        C851   1.468       .  S
C742        C828   1.465       .  S
C743        C821   1.467       .  S
C744        C841   1.467       .  S
C745        C746   1.404       .  A
C745        C750   1.405       .  A
C746        C747   1.403       .  A
C746        H751   1.084       .  S
C747        C748   1.405       .  A
C748        C749   1.405       .  A
C748        H752   1.084       .  S
C749        C750   1.406       .  A
C750        H753   1.083       .  S
C754        C755   1.404       .  A
C754        C759   1.407       .  A
C755        C756   1.403       .  A
C755        H760   1.084       .  S
C756        C757   1.401       .  A
C757        C758   1.403       .  A
C757        H761   1.084       .  S
C758        C759   1.407       .  A
C759        H762   1.084       .  S
C763        C764   1.405       .  A
C763        C768   1.406       .  A
C764        C765   1.404       .  A
C764        H769   1.084       .  S
C765        C766   1.404       .  A
C766        C767   1.405       .  A
C766        H770   1.084       .  S
C767        C768   1.405       .  A
C768        H771   1.084       .  S
C772        C773   1.404       .  A
C772        C777   1.402       .  A
C773        C774   1.405       .  A
C773        H778   1.084       .  S
C774        C775   1.406       .  A
C775        C776   1.406       .  A
C775        H779   1.084       .  S
C776        C777   1.403       .  A
C777        H780   1.084       .  S
C781        C782   1.404       .  A
C781        C786   1.406       .  A
C782        C783   1.404       .  A
C782        H787   1.084       .  S
C783        C784   1.405       .  A
C784        C785   1.405       .  A
C784        H788   1.084       .  S
C785        C786   1.405       .  A
C786        H789   1.084       .  S
C790        C791   1.406       .  A
C790        C795   1.406       .  A
C791        C792   1.405       .  A
C791        H796   1.084       .  S
C792        C793   1.402       .  A
C793        C794   1.403       .  A
C793        H797   1.084       .  S
C794        C795   1.405       .  A
C795        H798   1.084       .  S
C799        C800   1.406       .  A
C799        C804   1.405       .  A
C800        C801   1.405       .  A
C800        H805   1.084       .  S
C801        C802   1.405       .  A
C802        C803   1.405       .  A
C802        H806   1.084       .  S
C803        C804   1.405       .  A
C804        H807   1.084       .  S
C808        C809   1.404       .  A
C808        C813   1.402       .  A
C809        C810   1.405       .  A
C809        H814   1.084       .  S
C810        C811   1.405       .  A
C811        C812   1.405       .  A
C811        H815   1.084       .  S
C812        C813   1.403       .  A
C813        H816   1.084       .  S
C817        C818   1.408       .  A
C817        C822   1.393       .  A
C817        F824   1.357       .  S
C818        C819   1.411       .  A
C819        C820   1.402       .  A
C819        F826   1.357       .  S
C820        C821   1.402       .  A
C820        F825   1.357   1_455  S
C821        C822   1.398       .  A
C822        F823   1.354       .  S
C827        C828   1.399       .  A
C827        C832   1.395       .  A
C827        F834   1.357       .  S
C828        C829   1.402       .  A
C829        C830   1.402       .  A
C829        F836   1.358   1_545  S
C830        C831   1.412       .  A
C830        F835   1.357       .  S
C831        C832   1.409       .  A
C832        F833   1.357       .  S
C837        C838   1.414       .  A
C837        C842   1.402       .  A
C837        F844   1.356       .  S
C838        C839   1.412       .  A
C839        C840   1.394       .  A
C839        F846   1.356       .  S
C840        C841   1.399       .  A
C840        F845   1.358       .  S
C841        C842   1.401       .  A
C842        F843   1.358       .  S
C847        C848   1.405       .  A
C847        C852   1.397       .  A
C847        F854   1.358       .  S
C848        C849   1.406       .  A
C849        C850   1.400       .  A
C849        F856   1.357       .  S
C850        C851   1.403       .  A
C850        F855   1.357       .  S
C851        C852   1.402       .  A
C852        F853   1.354   1_565  S
C857        C858   1.411       .  A
C857        C862   1.405       .  A
C857        F864   1.358       .  S
C858        C859   1.412       .  A
C859        C860   1.391       .  A
C859        F866   1.358       .  S
C860        C861   1.402       .  A
C860        F865   1.358       .  S
C861        C862   1.407       .  A
C862        F863   1.358       .  S
C867        C868   1.404       .  A
C867        C872   1.403       .  A
C867        F874   1.358       .  S
C868        C869   1.399       .  A
C869        C870   1.394       .  A
C869        F876   1.358       .  S
C870        C871   1.411       .  A
C870        F875   1.358       .  S
C871        C872   1.409       .  A
C872        F873   1.358       .  S
C877        C878   1.407       .  A
C877        C882   1.397       .  A
C877        F884   1.358       .  S
C878        C879   1.406       .  A
C879        C880   1.401       .  A
C879        F886   1.358       .  S
C880        C881   1.403       .  A
C880        F885   1.358       .  S
C881        C882   1.401       .  A
C882        F883   1.358       .  S
C887        C888   1.400       .  A
C887        C892   1.395       .  A
C887        F894   1.358       .  S
C888        C889   1.403       .  A
C889        C890   1.402       .  A
C889        F896   1.358       .  S
C890        C891   1.410       .  A
C890        F895   1.358       .  S
C891        C892   1.410       .  A
C892        F893   1.358       .  S
C897        C898   1.401       .  A
C897        C902   1.402       .  A
C897        F904   1.358   1_545  S
C898        C899   1.400       .  A
C899        C900   1.396       .  A
C899        F906   1.358       .  S
C900        C901   1.410       .  A
C900        F905   1.357       .  S
C901        C902   1.413       .  A
C902        F903   1.357       .  S
C907        C908   1.401       .  A
C907        C912   1.396       .  A
C907        F914   1.358       .  S
C908        C909   1.403       .  A
C909        C910   1.400       .  A
C909        F916   1.358       .  S
C910        C911   1.406       .  A
C910        F915   1.358       .  S
C911        C912   1.407       .  A
C912        F913   1.358   1_455  S
C917        C918   1.410       .  A
C917        C922   1.390       .  A
C917        F924   1.356       .  S
C918        C919   1.416       .  A
C919        C920   1.404       .  A
C919        F926   1.356       .  S
C920        C921   1.401       .  A
C920        F925   1.358       .  S
C921        C922   1.398       .  A
C922        F923   1.356       .  S
C927        C928   1.403       .  A
C927        C932   1.397       .  A
C927        F934   1.358       .  S
C928        C929   1.405       .  A
C929        C930   1.400       .  A
C929        F936   1.357       .  S
C930        C931   1.403       .  A
C930        F935   1.358       .  S
C931        C932   1.404       .  A
C932        F933   1.355   1_565  S
C937        C938   1.401       .  A
C937        C942   1.400       .  A
C937        F944   1.356   1_545  S
C938        C939   1.400       .  A
C939        C940   1.395       .  A
C939        F946   1.358       .  S
C940        C941   1.409       .  A
C940        F945   1.357       .  S
C941        C942   1.411       .  A
C942        F943   1.357       .  S
C947        C948   1.399       .  A
C947        C952   1.392       .  A
C947        F954   1.357       .  S
C948        C949   1.402       .  A
C949        C950   1.404       .  A
C949        F956   1.358       .  S
C950        C951   1.414       .  A
C950        F955   1.357       .  S
C951        C952   1.411       .  A
C952        F953   1.356       .  S
C957        C958   1.401       .  A
C957        C962   1.395       .  A
C957        F964   1.358       .  S
C958        C959   1.403       .  A
C959        C960   1.402       .  A
C959        F966   1.358       .  S
C960        C961   1.410       .  A
C960        F965   1.358       .  S
C961        C962   1.410       .  A
C962        F963   1.358       .  S
C967        C968   1.407       .  A
C967        C972   1.400       .  A
C967        F974   1.358       .  S
C968        C969   1.405       .  A
C969        C970   1.397       .  A
C969        F976   1.358       .  S
C970        C971   1.401       .  A
C970        F975   1.356       .  S
C971        C972   1.403       .  A
C972        F973   1.357   1_554  S
C977        C978   1.411       .  A
C977        C982   1.404       .  A
C977        F984   1.358       .  S
C978        C979   1.412       .  A
C979        C980   1.392       .  A
C979        F986   1.358       .  S
C980        C981   1.402       .  A
C980        F985   1.358       .  S
C981        C982   1.406       .  A
C982        F983   1.358       .  S
C987        C988   1.408       .  A
C987        C992   1.391       .  A
C987        F994   1.357       .  S
C988        C989   1.413       .  A
C989        C990   1.405       .  A
C989        F996   1.357       .  S
C990        C991   1.403       .  A
C990        F995   1.358       .  S
C991        C992   1.399       .  A
C992        F993   1.356       .  S
C997        C998   1.407       .  A
C997       C1002   1.399       .  A
C997       F1004   1.357       .  S
C998        C999   1.408       .  A
C999       C1000   1.399       .  A
C999       F1006   1.358       .  S
C1000      C1001   1.402       .  A
C1000      F1005   1.356   1_556  S
C1001      C1002   1.402       .  A
C1002      F1003   1.358       .  S
C1007      C1008   1.402       .  A
C1007      C1012   1.396       .  A
C1007      F1014   1.358       .  S
C1008      C1009   1.403       .  A
C1009      C1010   1.402       .  A
C1009      F1016   1.358       .  S
C1010      C1011   1.410       .  A
C1010      F1015   1.358       .  S
C1011      C1012   1.410       .  A
C1012      F1013   1.358       .  S
C1017      C1018   1.402       .  A
C1017      C1022   1.400       .  A
C1017      F1024   1.357       .  S
C1018      C1019   1.401       .  A
C1019      C1020   1.398       .  A
C1019      F1026   1.358       .  S
C1020      C1021   1.409       .  A
C1020      F1025   1.357       .  S
C1021      C1022   1.410       .  A
C1022      F1023   1.357       .  S
C1027      C1028   1.407       .  A
C1027      C1032   1.398       .  A
C1027      F1034   1.358       .  S
C1028      C1029   1.407       .  A
C1029      C1030   1.401       .  A
C1029      F1036   1.358       .  S
C1030      C1031   1.403       .  A
C1030      F1035   1.358       .  S
C1031      C1032   1.402       .  A
C1032      F1033   1.358       .  S
C1037      C1038   1.400       .  A
C1037      C1042   1.394       .  A
C1037      F1044   1.358       .  S
C1038      C1039   1.404       .  A
C1039      C1040   1.403       .  A
C1039      F1046   1.358       .  S
C1040      C1041   1.410       .  A
C1040      F1045   1.358       .  S
C1041      C1042   1.412       .  A
C1042      F1043   1.358       .  S
C1047      C1048   1.415       .  A
C1047      C1052   1.403       .  A
C1047      F1054   1.356       .  S
C1048      C1049   1.411       .  A
C1049      C1050   1.392       .  A
C1049      F1056   1.356       .  S
C1050      C1051   1.399       .  A
C1050      F1055   1.358       .  S
C1051      C1052   1.401       .  A
C1052      F1053   1.358       .  S
C1057      C1058   1.410       .  A
C1057      C1062   1.404       .  A
C1057      F1064   1.358       .  S
C1058      C1059   1.410       .  A
C1059      C1060   1.393       .  A
C1059      F1066   1.358       .  S
C1060      C1061   1.404       .  A
C1060      F1065   1.358       .  S
C1061      C1062   1.408       .  A
C1062      F1063   1.358       .  S
C1067      C1068   1.401       .  A
C1067      C1072   1.399       .  A
C1067      F1074   1.355   1_455  S
C1068      C1069   1.401       .  A
C1069      C1070   1.399       .  A
C1069      F1076   1.358       .  S
C1070      C1071   1.409       .  A
C1070      F1075   1.357       .  S
C1071      C1072   1.410       .  A
C1072      F1073   1.357       .  S
C1077      C1078   1.406       .  A
C1077      C1082   1.393       .  A
C1077      F1084   1.358       .  S
C1078      C1079   1.411       .  A
C1079      C1080   1.404       .  A
C1079      F1086   1.357       .  S
C1080      C1081   1.404       .  A
C1080      F1085   1.358       .  S
C1081      C1082   1.399       .  A
C1082      F1083   1.352       .  S
C1087      C1088   1.406       .  A
C1087      C1092   1.398       .  A
C1087      F1094   1.358       .  S
C1088      C1089   1.407       .  A
C1089      C1090   1.399       .  A
C1089      F1096   1.357       .  S
C1090      C1091   1.401       .  A
C1090      F1095   1.354       .  S
C1091      C1092   1.402       .  A
C1092      F1093   1.352   1_554  S
C1097      C1098   1.400       .  A
C1097      C1102   1.396       .  A
C1097      F1104   1.356       .  S
C1098      C1099   1.401       .  A
C1099      C1100   1.401       .  A
C1099      F1106   1.355   1_556  S
C1100      C1101   1.411       .  A
C1100      F1105   1.357       .  S
C1101      C1102   1.409       .  A
C1102      F1103   1.357       .  S
C1107      C1108   1.400       .  A
C1107      C1112   1.396       .  A
C1107      F1114   1.355       .  S
C1108      C1109   1.402       .  A
C1109      C1110   1.400       .  A
C1109      F1116   1.355       .  S
C1110      C1111   1.409       .  A
C1110      F1115   1.358       .  S
C1111      C1112   1.407       .  A
C1112      F1113   1.357       .  S
C1117      C1118   1.405       .  A
C1117      C1122   1.397       .  A
C1117      F1124   1.356   1_455  S
C1118      C1119   1.404       .  A
C1119      C1120   1.401       .  A
C1119      F1126   1.358       .  S
C1120      C1121   1.405       .  A
C1120      F1125   1.357       .  S
C1121      C1122   1.403       .  A
C1122      F1123   1.358       .  S
C1127      C1128   1.403       .  A
C1127      C1132   1.401       .  A
C1127      F1134   1.358   1_554  S
C1128      C1129   1.401       .  A
C1129      C1130   1.396       .  A
C1129      F1136   1.355       .  S
C1130      C1131   1.405       .  A
C1130      F1135   1.358       .  S
C1131      C1132   1.407       .  A
C1132      F1133   1.358       .  S
C1137      C1138   1.408       .  A
C1137      C1142   1.399       .  A
C1137      F1144   1.358       .  S
C1138      C1139   1.406       .  A
C1139      C1140   1.397       .  A
C1139      F1146   1.357       .  S
C1140      C1141   1.401       .  A
C1140      F1145   1.358       .  S
C1141      C1142   1.402       .  A
C1142      F1143   1.357       .  S
C1147      C1148   1.402       .  A
C1147      C1152   1.399       .  A
C1147      F1154   1.357       .  S
C1148      C1149   1.404       .  A
C1149      C1150   1.399       .  A
C1149      F1156   1.356       .  S
C1150      C1151   1.405       .  A
C1150      F1155   1.358       .  S
C1151      C1152   1.405       .  A
C1152      F1153   1.357       .  S
C1157      C1158   1.399       .  A
C1157      C1162   1.391       .  A
C1157      F1164   1.357       .  S
C1158      C1159   1.402       .  A
C1159      C1160   1.404       .  A
C1159      F1166   1.358       .  S
C1160      C1161   1.415       .  A
C1160      F1165   1.356       .  S
C1161      C1162   1.411       .  A
C1162      F1163   1.356       .  S
C1167      C1168   1.406       .  A
C1167      C1172   1.404       .  A
C1167      F1174   1.358       .  S
C1168      C1169   1.404       .  A
C1169      C1170   1.393       .  A
C1169      F1176   1.358       .  S
C1170      C1171   1.410       .  A
C1170      F1175   1.356       .  S
C1171      C1172   1.413       .  A
C1172      F1173   1.357       .  S
C1177      C1178   1.411       .  A
C1177      C1182   1.403       .  A
C1177      F1184   1.358       .  S
C1178      C1179   1.413       .  A
C1179      C1180   1.392       .  A
C1179      F1186   1.358       .  S
C1180      C1181   1.400       .  A
C1180      F1185   1.358       .  S
C1181      C1182   1.404       .  A
C1182      F1183   1.358       .  S
C1187      C1188   1.399       .  A
C1187      C1192   1.395       .  A
C1187      F1194   1.358       .  S
C1188      C1189   1.401       .  A
C1189      C1190   1.400       .  A
C1189      F1196   1.358       .  S
C1190      C1191   1.411       .  A
C1190      F1195   1.357       .  S
C1191      C1192   1.409       .  A
C1192      F1193   1.357       .  S
C1197      C1198   1.401       .  A
C1197      C1202   1.402       .  A
C1197      F1204   1.358       .  S
C1198      C1199   1.399       .  A
C1199      C1200   1.394       .  A
C1199      F1206   1.359       .  S
C1200      C1201   1.410       .  A
C1200      F1205   1.357       .  S
C1201      C1202   1.414       .  A
C1202      F1203   1.357       .  S
C1207      C1208   1.405       .  A
C1207      C1212   1.398       .  A
C1207      F1214   1.358       .  S
C1208      C1209   1.404       .  A
C1209      C1210   1.399       .  A
C1209      F1216   1.358       .  S
C1210      C1211   1.404       .  A
C1210      F1215   1.358       .  S
C1211      C1212   1.403       .  A
C1212      F1213   1.358       .  S
C1217      C1218   1.408       .  A
C1217      C1222   1.401       .  A
C1217      F1224   1.358       .  S
C1218      C1219   1.409       .  A
C1219      C1220   1.397       .  A
C1219      F1226   1.358       .  S
C1220      C1221   1.401       .  A
C1220      F1225   1.358       .  S
C1221      C1222   1.403       .  A
C1222      F1223   1.358       .  S
C1227      C1228   1.405       .  A
C1227      C1232   1.399       .  A
C1227      F1234   1.358       .  S
C1228      C1229   1.406       .  A
C1229      C1230   1.400       .  A
C1229      F1236   1.358       .  S
C1230      C1231   1.404       .  A
C1230      F1235   1.358       .  S
C1231      C1232   1.403       .  A
C1232      F1233   1.358       .  S
C1237      C1238   1.403       .  A
C1237      C1242   1.399       .  A
C1237      F1244   1.358       .  S
C1238      C1239   1.403       .  A
C1239      C1240   1.398       .  A
C1239      F1246   1.358       .  S
C1240      C1241   1.405       .  A
C1240      F1245   1.358       .  S
C1241      C1242   1.405       .  A
C1242      F1243   1.358       .  S
C1247      C1248   1.404       .  A
C1247      C1252   1.399       .  A
C1247      F1254   1.358       .  S
C1248      C1249   1.405       .  A
C1249      C1250   1.398       .  A
C1249      F1256   1.358       .  S
C1250      C1251   1.404       .  A
C1250      F1255   1.358       .  S
C1251      C1252   1.404       .  A
C1252      F1253   1.358       .  S
C1257      C1258   1.402       .  A
C1257      C1262   1.401       .  A
C1257      F1264   1.358       .  S
C1258      C1259   1.399       .  A
C1259      C1260   1.394       .  A
C1259      F1266   1.357       .  S
C1260      C1261   1.408       .  A
C1260      F1265   1.357       .  S
C1261      C1262   1.411       .  A
C1262      F1263   1.357       .  S
C1267      C1268   1.401       .  A
C1267      C1272   1.401       .  A
C1267      F1274   1.358       .  S
C1268      C1269   1.399       .  A
C1269      C1270   1.393       .  A
C1269      F1276   1.359       .  S
C1270      C1271   1.410       .  A
C1270      F1275   1.357       .  S
C1271      C1272   1.413       .  A
C1272      F1273   1.357       .  S
C1277      C1278   1.403       .  A
C1277      C1282   1.402       .  A
C1277      F1284   1.358       .  S
C1278      C1279   1.401       .  A
C1279      C1280   1.396       .  A
C1279      F1286   1.358       .  S
C1280      C1281   1.409       .  A
C1280      F1285   1.358       .  S
C1281      C1282   1.408       .  A
C1282      F1283   1.358       .  S
C1287      C1288   1.402       .  A
C1287      C1292   1.402       .  A
C1287      F1294   1.357       .  S
C1288      C1289   1.400       .  A
C1289      C1290   1.396       .  A
C1289      F1296   1.358       .  S
C1290      C1291   1.409       .  A
C1290      F1295   1.357       .  S
C1291      C1292   1.411       .  A
C1292      F1293   1.357       .  S
