geometry optimzed in LAMMPS
_audit_creation_date              2020-11-30 
_audit_creation_method            'lammps2cif' 
_symmetry_space_group_name_H-M    'P1' 
_symmetry_Int_Tables_number       1 
_symmetry_cell_setting            triclinic 
loop_ 
_symmetry_equiv_pos_as_xyz 
  x,y,z 
_cell_length_a                    46.22382943 
_cell_length_b                    46.313728785495336 
_cell_length_c                    37.61945351627828 
_cell_angle_alpha                 88.57656888622206 
_cell_angle_beta                  92.00357959190646 
_cell_angle_gamma                 90.08887319589003 
loop_ 
_atom_site_label 
_atom_site_type_symbol 
_atom_site_fract_x 
_atom_site_fract_y 
_atom_site_fract_z 
_atom_site_charge 
C1          C  0.36605780  0.36093144  0.21831278     0.03200
C2          C  0.37812712  0.36811798  0.25180631    -0.12900
C3          C  0.36827375  0.35490470  0.28303846     0.00700
C4          C  0.34624539  0.33428041  0.28077060    -0.11500
C5          C  0.33380637  0.32662146  0.24780147     0.03200
C6          C  0.34393812  0.33991640  0.21651309    -0.10900
H7          H  0.39551561  0.38377829  0.25364590     0.08800
H8          H  0.33839214  0.32457564  0.30510465     0.06300
H9          H  0.33420221  0.33444375  0.19095285     0.06200
C10         C  0.42134535  0.42446381  0.46564392     0.03200
C11         C  0.44327369  0.44518057  0.46814046    -0.12900
C12         C  0.45528401  0.45302421  0.00123445     0.00700
C13         C  0.44494943  0.43971988  0.03240435    -0.11500
C14         C  0.42295153  0.41859330  0.03038612     0.03200
C15         C  0.41124091  0.41128718  0.49677196    -0.10900
H16         H  0.45130259  0.45488647  0.44390099     0.08800
H17         H  0.45440715  0.44532125  0.05806359     0.06300
H18         H  0.39388364  0.39558728  0.99473607     0.06200
C19         C  0.36677366  0.17477305  0.21367242     0.03200
C20         C  0.34394897  0.19455770  0.21458805    -0.12900
C21         C  0.33321402  0.20317565  0.24702378     0.00700
C22         C  0.34563742  0.19160597  0.27899312    -0.11500
C23         C  0.36859789  0.17168923  0.27861181     0.03200
C24         C  0.37889446  0.16326953  0.24569315    -0.10900
H25         H  0.33448027  0.20317957  0.18979735     0.08800
H26         H  0.33789512  0.19856364  0.30423622     0.06300
H27         H  0.39647177  0.14787538  0.24493009     0.06200
C28         C  0.41809841  0.10752952  0.47109693     0.03200
C29         C  0.40770048  0.11592443  0.50397444    -0.12900
C30         C  0.41984570  0.10456497  0.03603109     0.00700
C31         C  0.44284845  0.08498013  0.03522022    -0.11500
C32         C  0.45373403  0.07643360  0.00283652     0.03200
C33         C  0.44124946  0.08781811  0.47081737    -0.10900
H34         H  0.38998174  0.13119161  0.00467143     0.08800
H35         H  0.45236738  0.07649850  0.06005459     0.05500
H36         H  0.44910078  0.08089499  0.44561444     0.06200
C37         C  0.17157012  0.36095491  0.22124275     0.03200
C38         C  0.19290306  0.33945384  0.21986630    -0.12900
C39         C  0.20672836  0.32843068  0.25111034     0.00700
C40         C  0.19897818  0.33923619  0.28408942    -0.11500
C41         C  0.17774384  0.36078235  0.28609864     0.03200
C42         C  0.16409446  0.37144153  0.25447483    -0.10900
H43         H  0.19841184  0.33096830  0.19439807     0.08800
H44         H  0.20927930  0.33065440  0.30839845     0.06300
H45         H  0.14820128  0.38852351  0.25564047     0.06200
C46         C  0.11185131  0.42139146  0.46406759     0.03200
C47         C  0.09044292  0.44276790  0.46608814    -0.12900
C48         C  0.08244237  0.45337907  0.99908600     0.00700
C49         C  0.09628988  0.44239392  0.03033589    -0.11500
C50         C  0.11781771  0.42107813  0.02895203     0.03200
C51         C  0.12549109  0.41074619  0.49569761    -0.10900
H52         H  0.08012037  0.45132174  0.44177844     0.08800
H53         H  0.09060910  0.45073943  0.05581266     0.06300
H54         H  0.14146879  0.39377581  0.99452179     0.06200
O55         O  0.05024300  0.04599621  0.03196306    -0.72900
O56         O  0.48935576  0.48353858  0.03201536    -0.73800
O57         O  0.05117470  0.48437791  0.03069504    -0.62500
O58         O  0.48855408  0.04485120  0.03203369    -0.70900
O59         O  0.48663794  0.04652721  0.47306711    -0.70400
O60         O  0.04856161  0.48650341  0.47175854    -0.61700
O61         O  0.48747741  0.48580891  0.47307536    -0.74200
O62         O  0.04770482  0.04750163  0.47300149    -0.73000
Cu63       Cu  0.01995573  0.01463512  0.03382753     1.04600
Cu64       Cu  0.01757977  0.01662496  0.47078681     1.04300
C65         C  0.05846921  0.05671724  0.00234751     0.93300
C66         C  0.47854793  0.47507202  0.50234549     0.92500
C67         C  0.05968561  0.47582551  0.00068562     0.84600
C68         C  0.47750035  0.05503595  0.00265312     0.90900
O69         O  0.30133522  0.29444771  0.27645624    -0.72900
O70         O  0.23997831  0.23389356  0.27775816    -0.73800
O71         O  0.30103055  0.23372346  0.27695056    -0.62500
O72         O  0.24027682  0.29492777  0.27842342    -0.70900
O73         O  0.23726683  0.29675255  0.21949013    -0.70400
O74         O  0.29870610  0.23515786  0.21798093    -0.61700
O75         O  0.23704106  0.23512384  0.21880991    -0.74200
O76         O  0.29905157  0.29649094  0.21750653    -0.73000
Cu77       Cu  0.27068689  0.26422138  0.27933645     1.04600
Cu78       Cu  0.26787463  0.26592396  0.21629709     1.04300
C79         C  0.31023984  0.30490080  0.24702821     0.93300
C80         C  0.22883453  0.22470802  0.24859569     0.92500
C81         C  0.30978360  0.22492435  0.24731910     0.84600
C82         C  0.22912082  0.30563148  0.24950899     0.90900
C83         C  0.11559577  0.11160851  0.03136408     0.03200
C84         C  0.12310665  0.12320055  0.99801786    -0.12900
C85         C  0.10945606  0.11357410  0.46661496     0.00700
C86         C  0.08830725  0.09201140  0.46862813    -0.11500
C87         C  0.08053776  0.07992612  0.00151775     0.03200
C88         C  0.09416898  0.08997100  0.03289125    -0.10900
H89         H  0.13916065  0.14021508  0.99648113     0.08800
H90         H  0.07822043  0.08428424  0.44422616     0.06300
H91         H  0.08854895  0.08060216  0.05840203     0.06200
C92         C  0.17738467  0.16856986  0.28505736     0.03200
C93         C  0.16358546  0.15885859  0.25377228    -0.12900
C94         C  0.17105956  0.17025796  0.22032260     0.00700
C95         C  0.19260189  0.19176021  0.21856924    -0.11500
C96         C  0.20643441  0.20182858  0.24979313     0.03200
C97         C  0.19868364  0.18998139  0.28280498    -0.10900
H98         H  0.14746650  0.14191856  0.25547647     0.08800
H99         H  0.19821832  0.20096585  0.19297244     0.06300
H100        H  0.20892602  0.19774139  0.30709713     0.06200
C101        C  0.16935405  0.15690240  0.32035697    -0.05200
C102        C  0.19094501  0.14942029  0.34618220    -0.05100
C103        C  0.18353501  0.13975633  0.38011004    -0.23300
C104        C  0.15438819  0.13752551  0.38883943     0.19000
C105        C  0.13249522  0.14482004  0.36296541     0.16200
C106        C  0.14011405  0.15434480  0.32887530    -0.18300
C107        C  0.10334817  0.14258910  0.37168438    -0.20100
C108        C  0.09593313  0.13290419  0.40559492    -0.12700
C109        C  0.11751802  0.12539976  0.43141336     0.04000
C110        C  0.14676276  0.12798111  0.42292430    -0.24800
H111        H  0.21361883  0.15102867  0.34004659     0.09100
H112        H  0.20058995  0.13415003  0.39954509     0.12700
H113        H  0.12334480  0.16039287  0.30922876     0.12600
H114        H  0.08629557  0.14819353  0.35224581     0.12400
H115        H  0.07325764  0.13126300  0.41171309     0.12900
H116        H  0.16352309  0.12191057  0.44257227     0.14900
C117        C  0.15633306  0.15958447  0.18739900    -0.05200
C118        C  0.12632768  0.15434779  0.18636252    -0.05100
C119        C  0.11240841  0.14378393  0.15577219    -0.23300
C120        C  0.12822105  0.13820559  0.12557978     0.19000
C121        C  0.15836771  0.14347710  0.12622547     0.16200
C122        C  0.17220521  0.15414150  0.15704895    -0.18300
C123        C  0.17419255  0.13789564  0.09605214    -0.20100
C124        C  0.16028520  0.12735798  0.06545347    -0.12700
C125        C  0.13027660  0.12215380  0.06437879     0.04000
C126        C  0.11438668  0.12755444  0.09473245    -0.24800
H127        H  0.11352727  0.15869442  0.20919156     0.09100
H128        H  0.08926942  0.13999223  0.15573735     0.12700
H129        H  0.19539413  0.15773269  0.15761628     0.12600
H130        H  0.19733329  0.14168116  0.09610063     0.12400
H131        H  0.17309538  0.12302900  0.04262669     0.12900
H132        H  0.09119892  0.12395692  0.09413686     0.14900
C133        C  0.13219496  0.40956951  0.06229328    -0.05200
C134        C  0.16220945  0.40454816  0.06404750    -0.05100
C135        C  0.17586981  0.39411779  0.09549737    -0.23300
C136        C  0.15976633  0.38850409  0.12580189     0.19000
C137        C  0.12957994  0.39339769  0.12436853     0.16200
C138        C  0.11600180  0.40381334  0.09266669    -0.18300
C139        C  0.11348122  0.38780008  0.15468530    -0.20100
C140        C  0.12715749  0.37743312  0.18616047    -0.12700
C141        C  0.15717107  0.37242047  0.18790354     0.04000
C142        C  0.17334951  0.37810792  0.15750684    -0.24800
H143        H  0.17522603  0.40912131  0.04119594     0.09100
H144        H  0.19904731  0.39055097  0.09615075     0.12700
H145        H  0.09278368  0.40718412  0.09154784     0.12600
H146        H  0.09030358  0.39136526  0.15403526     0.12400
H147        H  0.11416201  0.37290516  0.20904327     0.12900
H148        H  0.19656550  0.37471787  0.15862451     0.14900
C149        C  0.11958701  0.40994059  0.42896392    -0.05200
C150        C  0.09785949  0.40436499  0.40289865    -0.05100
C151        C  0.10488317  0.39370472  0.36984716    -0.23300
C152        C  0.13380910  0.38838634  0.36211572     0.19000
C153        C  0.15586787  0.39379607  0.38807178     0.16200
C154        C  0.14864545  0.40450517  0.42127256    -0.18300
C155        C  0.18479380  0.38845393  0.38033560    -0.20100
C156        C  0.19180768  0.37779620  0.34726973    -0.12700
C157        C  0.17006918  0.37226448  0.32120099     0.04000
C158        C  0.14102169  0.37769774  0.32890989    -0.24800
H159        H  0.07529312  0.40791791  0.40824393     0.09100
H160        H  0.08766113  0.38957161  0.35034998     0.12700
H161        H  0.16566478  0.40897073  0.44092813     0.12600
H162        H  0.20201864  0.39256529  0.39983638     0.12400
H163        H  0.21436632  0.37420479  0.34191482     0.12900
H164        H  0.12399639  0.37323851  0.30925821     0.14900
C165        C  0.40878139  0.11304346  0.07065188    -0.05200
C166        C  0.40337459  0.09188828  0.09702687    -0.05100
C167        C  0.39431581  0.09975376  0.13042525    -0.23300
C168        C  0.39064728  0.12893948  0.13805056     0.19000
C169        C  0.39581358  0.15038259  0.11156730     0.16200
C170        C  0.40470055  0.14228797  0.07798587    -0.18300
C171        C  0.39216341  0.17956833  0.11919972    -0.20100
C172        C  0.38315207  0.18743687  0.15261762    -0.12700
C173        C  0.37774446  0.16628334  0.17899911     0.04000
C174        C  0.38177688  0.13703497  0.17163925    -0.24800
H175        H  0.40616889  0.06919974  0.09172857     0.09100
H176        H  0.39032537  0.08303407  0.15032138     0.12700
H177        H  0.40910732  0.15871792  0.05785207     0.12600
H178        H  0.39616011  0.19628833  0.09930576     0.12400
H179        H  0.38041202  0.21012990  0.15792877     0.12900
H180        H  0.37737306  0.12060246  0.19177018     0.14900
C181        C  0.40442651  0.11895386  0.43718235    -0.05200
C182        C  0.37414216  0.12154871  0.43341100    -0.05100
C183        C  0.36111477  0.13235658  0.40173336    -0.23300
C184        C  0.37810191  0.14082162  0.37313192     0.19000
C185        C  0.40854727  0.13823751  0.37650164     0.16200
C186        C  0.42149631  0.12732739  0.40842325    -0.18300
C187        C  0.42553697  0.14668303  0.34789597    -0.20100
C188        C  0.41251693  0.15750425  0.31622527    -0.12700
C189        C  0.38223968  0.16014932  0.31247512     0.04000
C190        C  0.36515875  0.15176957  0.34122257    -0.24800
H191        H  0.36044515  0.11487266  0.45489756     0.09100
H192        H  0.33773825  0.13405747  0.39960237     0.12700
H193        H  0.44487001  0.12573786  0.41105267     0.12600
H194        H  0.44891282  0.14496791  0.35002421     0.12400
H195        H  0.42621421  0.16417543  0.29473638     0.12900
H196        H  0.34178779  0.15340659  0.33859783     0.14900
C197        C  0.37999633  0.36323638  0.31840799    -0.05200
C198        C  0.38693430  0.34194738  0.34459619    -0.05100
C199        C  0.39607976  0.34969859  0.37879369    -0.23300
C200        C  0.39831438  0.37888551  0.38740867     0.19000
C201        C  0.39163082  0.40047135  0.36114214     0.16200
C202        C  0.38263598  0.39250777  0.32679075    -0.18300
C203        C  0.39387272  0.42965861  0.36975373    -0.20100
C204        C  0.40297759  0.43740933  0.40396533    -0.12700
C205        C  0.40985840  0.41611986  0.43017408     0.04000
C206        C  0.40726208  0.38684881  0.42177722    -0.24800
H207        H  0.38518901  0.31925170  0.33856675     0.09100
H208        H  0.40123337  0.33288115  0.39853647     0.12700
H209        H  0.37694638  0.40903768  0.30685459     0.12600
H210        H  0.38872697  0.44647616  0.35000833     0.12400
H211        H  0.40469035  0.46010541  0.41000492     0.12900
H212        H  0.41290379  0.37032090  0.44173531     0.14900
C213        C  0.37637678  0.37591779  0.18561498    -0.05200
C214        C  0.38262181  0.40567860  0.18583881    -0.05100
C215        C  0.39310600  0.41991159  0.15573890    -0.23300
C216        C  0.39753203  0.40472226  0.12465553     0.19000
C217        C  0.39113977  0.37486633  0.12392836     0.16200
C218        C  0.38058028  0.36067021  0.15432345    -0.18300
C219        C  0.39557382  0.35967704  0.09284856    -0.20100
C220        C  0.40612162  0.37389484  0.06277363    -0.12700
C221        C  0.41240678  0.40364858  0.06300612     0.04000
C222        C  0.40812604  0.41890961  0.09427542    -0.24800
H223        H  0.37915457  0.41809692  0.20932447     0.09100
H224        H  0.39773478  0.44282412  0.15678857     0.12700
H225        H  0.37616857  0.33768852  0.15382182     0.12600
H226        H  0.39094325  0.33676471  0.09179921     0.12400
H227        H  0.40964597  0.36145441  0.03932266     0.12900
H228        H  0.41254647  0.44188846  0.09479499     0.14900
C229        C  0.36602593  0.36094596  0.71830348     0.03200
C230        C  0.37809116  0.36813896  0.75179642    -0.12900
C231        C  0.36824094  0.35492438  0.78302881     0.00700
C232        C  0.34621909  0.33429312  0.78076246    -0.11500
C233        C  0.33378353  0.32662811  0.74779384     0.03200
C234        C  0.34391292  0.33992378  0.71650446    -0.10900
H235        H  0.39547470  0.38380462  0.75363528     0.08800
H236        H  0.33836877  0.32458721  0.80509716     0.06300
H237        H  0.33418065  0.33444627  0.69094438     0.06200
C238        C  0.42131292  0.42447741  0.96563601     0.03200
C239        C  0.44324028  0.44519525  0.96813027    -0.12900
C240        C  0.45530714  0.45301900  0.50124634     0.00700
C241        C  0.44496187  0.43972344  0.53241636    -0.11500
C242        C  0.42296454  0.41859593  0.53039525     0.03200
C243        C  0.41121842  0.41129202  0.99676458    -0.10900
H244        H  0.45126099  0.45490865  0.94389047     0.08800
H245        H  0.45441099  0.44533150  0.55807748     0.06300
H246        H  0.39390548  0.39558333  0.49474175     0.06200
C247        C  0.36677985  0.17478890  0.71366385     0.03200
C248        C  0.34394840  0.19456658  0.71457853    -0.12900
C249        C  0.33321165  0.20318286  0.74701430     0.00700
C250        C  0.34563950  0.19161821  0.77898374    -0.11500
C251        C  0.36860530  0.17170778  0.77860339     0.03200
C252        C  0.37890501  0.16329100  0.74568548    -0.10900
H253        H  0.33447575  0.20318417  0.68978771     0.08800
H254        H  0.33789532  0.19857413  0.80422675     0.06300
H255        H  0.39648697  0.14790196  0.74492377     0.06200
C256        C  0.41807685  0.10753322  0.97108985     0.03200
C257        C  0.40767227  0.11592261  0.00396646    -0.12900
C258        C  0.41987992  0.10457246  0.53603891     0.00700
C259        C  0.44288291  0.08498764  0.53522643    -0.11500
C260        C  0.45376153  0.07643420  0.50284184     0.03200
C261        C  0.44122821  0.08782259  0.97081173    -0.10900
H262        H  0.39000961  0.13119306  0.50468017     0.08800
H263        H  0.45240693  0.07651038  0.56006050     0.05500
H264        H  0.44908500  0.08090430  0.94560912     0.06200
C265        C  0.17156902  0.36096320  0.72125674     0.03200
C266        C  0.19289724  0.33945757  0.71988181    -0.12900
C267        C  0.20671620  0.32842822  0.75112658     0.00700
C268        C  0.19896363  0.33923191  0.78410590    -0.11500
C269        C  0.17773301  0.36078248  0.78611363     0.03200
C270        C  0.16409055  0.37144799  0.75448846    -0.10900
H271        H  0.19840803  0.33097391  0.69441361     0.08800
H272        H  0.20925994  0.33064557  0.80841594     0.06300
H273        H  0.14820036  0.38853323  0.75565316     0.06200
C274        C  0.11183052  0.42140185  0.96407070     0.03200
C275        C  0.09042027  0.44277614  0.96609078    -0.12900
C276        C  0.08246500  0.45337039  0.49908379     0.00700
C277        C  0.09631075  0.44238257  0.53033310    -0.11500
C278        C  0.11783623  0.42106442  0.52894916     0.03200
C279        C  0.12547201  0.41075905  0.99570077    -0.10900
H280        H  0.08009681  0.45132868  0.94178076     0.08800
H281        H  0.09063025  0.45072789  0.55580996     0.06300
H282        H  0.14148666  0.39376196  0.49451827     0.06200
O283        O  0.05027096  0.04599142  0.53195820    -0.72900
O284        O  0.48938013  0.48353536  0.53202556    -0.73800
O285        O  0.05120009  0.48437154  0.53069516    -0.62500
O286        O  0.48858217  0.04485012  0.53203754    -0.70900
O287        O  0.48661477  0.04653168  0.97306318    -0.70400
O288        O  0.04853821  0.48650944  0.97175817    -0.61700
O289        O  0.48745412  0.48581487  0.97306513    -0.74200
O290        O  0.04768167  0.04750636  0.97300615    -0.73000
Cu291      Cu  0.01998259  0.01463133  0.53382998     1.04600
Cu292      Cu  0.01755671  0.01663054  0.97078413     1.04300
C293        C  0.05849400  0.05671333  0.50234149     0.93300
C294        C  0.47852445  0.47507665  0.00233426     0.92500
C295        C  0.05970963  0.47581868  0.50068513     0.84600
C296        C  0.47752641  0.05503404  0.50265739     0.90900
O297        O  0.30132155  0.29444684  0.77645233    -0.72900
O298        O  0.23996974  0.23388611  0.77776811    -0.73800
O299        O  0.30102307  0.23372265  0.77694451    -0.62500
O300        O  0.24026402  0.29492142  0.77843543    -0.70900
O301        O  0.23724950  0.29674810  0.71950219    -0.70400
O302        O  0.29869267  0.23515679  0.71797501    -0.61700
O303        O  0.23702635  0.23511935  0.71881997    -0.74200
O304        O  0.29903265  0.29649029  0.71750267    -0.73000
Cu305      Cu  0.27067661  0.26421717  0.77933930     1.04600
Cu306      Cu  0.26785802  0.26592102  0.71630013     1.04300
C307        C  0.31022196  0.30490179  0.74702300     0.93300
C308        C  0.22882262  0.22470225  0.74860659     0.92500
C309        C  0.30977524  0.22492547  0.74731159     0.84600
C310        C  0.22910620  0.30562649  0.74952273     0.90900
C311        C  0.11559930  0.11162479  0.53135837     0.03200
C312        C  0.12310528  0.12322237  0.49801369    -0.12900
C313        C  0.10944990  0.11355865  0.96661999     0.00700
C314        C  0.08829086  0.09200663  0.96863548    -0.11500
C315        C  0.08055751  0.07992713  0.50151001     0.03200
C316        C  0.09418331  0.08997691  0.53288400    -0.10900
H317        H  0.13915045  0.14024539  0.49647843     0.08800
H318        H  0.07819950  0.08428326  0.94423402     0.06300
H319        H  0.08856703  0.08060467  0.55839382     0.06200
C320        C  0.17737656  0.16855532  0.78506184     0.03200
C321        C  0.16357534  0.15885006  0.75377547    -0.12900
C322        C  0.17104498  0.17025774  0.72032892     0.00700
C323        C  0.19258509  0.19176216  0.71857962    -0.11500
C324        C  0.20642192  0.20182315  0.74980432     0.03200
C325        C  0.19867524  0.18996818  0.78281406    -0.10900
H326        H  0.14745858  0.14190781  0.75547638     0.08800
H327        H  0.19819747  0.20097429  0.69298545     0.06300
H328        H  0.20892023  0.19772257  0.80710736     0.06200
C329        C  0.16934699  0.15687916  0.82035740    -0.05200
C330        C  0.19093809  0.14938629  0.84617719    -0.05100
C331        C  0.18352849  0.13971606  0.88010281    -0.23300
C332        C  0.15438205  0.13749175  0.88883588     0.19000
C333        C  0.13248880  0.14479474  0.86296569     0.16200
C334        C  0.14010719  0.15432370  0.82887711    -0.18300
C335        C  0.10334215  0.14257159  0.87168809    -0.20100
C336        C  0.09592771  0.13289000  0.90560006    -0.12700
C337        C  0.11751286  0.12537944  0.93141610     0.04000
C338        C  0.14675730  0.12794887  0.92292167    -0.24800
H339        H  0.21361135  0.15099211  0.84003951     0.09100
H340        H  0.20058359  0.13410219  0.89953409     0.12700
H341        H  0.12333819  0.16037923  0.80923420     0.12600
H342        H  0.08628930  0.14818230  0.85225213     0.12400
H343        H  0.07325251  0.13125748  0.91172189     0.12900
H344        H  0.16351776  0.12187240  0.94256716     0.14900
C345        C  0.15631976  0.15958764  0.68740317    -0.05200
C346        C  0.12631698  0.15433624  0.68636866    -0.05100
C347        C  0.11240088  0.14377279  0.65577610    -0.23300
C348        C  0.12821420  0.13821047  0.62557960     0.19000
C349        C  0.15835796  0.14349784  0.62622336     0.16200
C350        C  0.17219233  0.15416035  0.65704920    -0.18300
C351        C  0.17418401  0.13793318  0.59604619    -0.20100
C352        C  0.16028056  0.12739494  0.56544584    -0.12700
C353        C  0.13027493  0.12217398  0.56437341     0.04000
C354        C  0.11438363  0.12755937  0.59473029    -0.24800
H355        H  0.11351595  0.15867078  0.70920067     0.09100
H356        H  0.08926404  0.13996867  0.65574286     0.12700
H357        H  0.19537910  0.15776227  0.65761473     0.12600
H358        H  0.19732238  0.14173141  0.59609327     0.12400
H359        H  0.17309188  0.12307783  0.54261646     0.12900
H360        H  0.09119756  0.12394921  0.59413632     0.14900
C361        C  0.13221043  0.40955439  0.56229173    -0.05200
C362        C  0.16222446  0.40453030  0.56404997    -0.05100
C363        C  0.17588232  0.39410634  0.59550476    -0.23300
C364        C  0.15977663  0.38850173  0.62580980     0.19000
C365        C  0.12959050  0.39339637  0.62437131     0.16200
C366        C  0.11601492  0.40380475  0.59266473    -0.18300
C367        C  0.11348916  0.38780754  0.65468790    -0.20100
C368        C  0.12716220  0.37744643  0.68616772    -0.12700
C369        C  0.15717522  0.37243121  0.68791569     0.04000
C370        C  0.17335685  0.37811243  0.65751986    -0.24800
H371        H  0.17524267  0.40909784  0.54119880     0.09100
H372        H  0.19905960  0.39053817  0.59616156     0.12700
H373        H  0.09279706  0.40717687  0.59154272     0.12600
H374        H  0.09031166  0.39137392  0.65403351     0.12400
H375        H  0.11416422  0.37292334  0.70904978     0.12900
H376        H  0.19657270  0.37472072  0.65864130     0.14900
C377        C  0.11956723  0.40995092  0.92896753    -0.05200
C378        C  0.09784103  0.40437461  0.90290079    -0.05100
C379        C  0.10486663  0.39371314  0.86985048    -0.23300
C380        C  0.13379320  0.38839302  0.86212258     0.19000
C381        C  0.15585032  0.39380288  0.88808046     0.16200
C382        C  0.14862611  0.40451491  0.92127888    -0.18300
C383        C  0.18477673  0.38845689  0.88034933    -0.20100
C384        C  0.19179276  0.37779503  0.84728634    -0.12700
C385        C  0.17005614  0.37226466  0.82121505     0.04000
C386        C  0.14100816  0.37770179  0.82891895    -0.24800
H387        H  0.07527417  0.40792796  0.90824398     0.09100
H388        H  0.08764557  0.38957967  0.85035170     0.12700
H389        H  0.16564433  0.40898125  0.94093504     0.12600
H390        H  0.20200005  0.39256759  0.89985239     0.12400
H391        H  0.21435182  0.37420024  0.84193508     0.12900
H392        H  0.12398463  0.37324365  0.80926507     0.14900
C393        C  0.40881793  0.11305347  0.57066044    -0.05200
C394        C  0.40342341  0.09190074  0.59704287    -0.05100
C395        C  0.39436156  0.09976811  0.63043910    -0.23300
C396        C  0.39067658  0.12895339  0.63805475     0.19000
C397        C  0.39583043  0.15039403  0.61156463     0.16200
C398        C  0.40472159  0.14229759  0.57798552    -0.18300
C399        C  0.39216314  0.17957944  0.61918745    -0.20100
C400        C  0.38314752  0.18744980  0.65260292    -0.12700
C401        C  0.37775247  0.16629850  0.67899138     0.04000
C402        C  0.38180144  0.13705064  0.67164059    -0.24800
H403        H  0.40622829  0.06921248  0.59175181     0.09100
H404        H  0.39038106  0.08305010  0.65034079     0.12700
H405        H  0.40911860  0.15872610  0.55784656     0.12600
H406        H  0.39614981  0.19629742  0.59928816     0.12400
H407        H  0.38039531  0.21014258  0.65790680     0.12900
H408        H  0.37740726  0.12061936  0.69177653     0.14900
C409        C  0.40441114  0.11896152  0.93717432    -0.05200
C410        C  0.37412728  0.12155272  0.93339403    -0.05100
C411        C  0.36110531  0.13236258  0.90171450    -0.23300
C412        C  0.37809765  0.14083262  0.87311986     0.19000
C413        C  0.40854259  0.13825149  0.87649781     0.16200
C414        C  0.42148642  0.12733985  0.90842183    -0.18300
C415        C  0.42553710  0.14670055  0.84789741    -0.20100
C416        C  0.41252155  0.15752341  0.81622444    -0.12700
C417        C  0.38224457  0.16016689  0.81246751     0.04000
C418        C  0.36515944  0.15178260  0.84120921    -0.24800
H419        H  0.36042626  0.11487208  0.95487537     0.09100
H420        H  0.33772887  0.13406080  0.89957617     0.12700
H421        H  0.44485959  0.12575249  0.91105820     0.12600
H422        H  0.44891242  0.14498702  0.85003191     0.12400
H423        H  0.42622223  0.16419717  0.79473919     0.12900
H424        H  0.34178859  0.15341682  0.83857849     0.14900
C425        C  0.37996335  0.36325813  0.81839704    -0.05200
C426        C  0.38691488  0.34196879  0.84457939    -0.05100
C427        C  0.39606286  0.34971928  0.87877577    -0.23300
C428        C  0.39828604  0.37890558  0.88739584     0.19000
C429        C  0.39158868  0.40049242  0.86113540     0.16200
C430        C  0.38259159  0.39252966  0.82678421    -0.18300
C431        C  0.39381988  0.42967909  0.86975331    -0.20100
C432        C  0.40292750  0.43742798  0.90396514    -0.12700
C433        C  0.40982089  0.41613689  0.93016745     0.04000
C434        C  0.40723584  0.38686680  0.92176406    -0.24800
H435        H  0.38517848  0.31927341  0.83854638     0.09100
H436        H  0.40122747  0.33290147  0.89851366     0.12700
H437        H  0.37689256  0.40905959  0.80685167     0.12600
H438        H  0.38866407  0.44649757  0.85001271     0.12400
H439        H  0.40463296  0.46012324  0.91000988     0.12900
H440        H  0.41288804  0.37033808  0.94171701     0.14900
C441        C  0.37634419  0.37593190  0.68560554    -0.05200
C442        C  0.38257850  0.40569516  0.68582525    -0.05100
C443        C  0.39306826  0.41992723  0.65572788    -0.23300
C444        C  0.39751082  0.40473467  0.62465136     0.19000
C445        C  0.39112716  0.37487643  0.62392781     0.16200
C446        C  0.38056169  0.36068132  0.65432006    -0.18300
C447        C  0.39557701  0.35968385  0.59285490    -0.20100
C448        C  0.40613308  0.37389983  0.56278377    -0.12700
C449        C  0.41241116  0.40365518  0.56301297     0.04000
C450        C  0.40811383  0.41892022  0.59427483    -0.24800
H451        H  0.37910035  0.41811539  0.70930632     0.09100
H452        H  0.39768951  0.44284151  0.65677465     0.12700
H453        H  0.37615799  0.33769753  0.65382182     0.12600
H454        H  0.39095304  0.33676992  0.59180828     0.12400
H455        H  0.40967008  0.36145678  0.53933835     0.12900
H456        H  0.41252891  0.44190062  0.59479096     0.14900
C457        C  0.36605786  0.86093139  0.21831282     0.03200
C458        C  0.37812720  0.86811799  0.25180631    -0.12900
C459        C  0.36827375  0.85490474  0.28303845     0.00700
C460        C  0.34624535  0.83428041  0.28077061    -0.11500
C461        C  0.33380628  0.82662148  0.24780149     0.03200
C462        C  0.34393807  0.83991643  0.21651313    -0.10900
H463        H  0.39551578  0.88377820  0.25364585     0.08800
H464        H  0.33839202  0.82457570  0.30510464     0.06300
H465        H  0.33420210  0.83444406  0.19095293     0.06200
C466        C  0.42134536  0.92446384  0.46564396     0.03200
C467        C  0.44327374  0.94518045  0.46814047    -0.12900
C468        C  0.45528404  0.95302419  0.00123445     0.00700
C469        C  0.44494947  0.93971989  0.03240440    -0.11500
C470        C  0.42295163  0.91859333  0.03038612     0.03200
C471        C  0.41124101  0.91128723  0.49677203    -0.10900
H472        H  0.45130273  0.95488611  0.44390107     0.08800
H473        H  0.45440732  0.94532108  0.05806360     0.06300
H474        H  0.39388367  0.89558764  0.99473606     0.06200
C475        C  0.36677374  0.67477294  0.21367243     0.03200
C476        C  0.34394909  0.69455766  0.21458811    -0.12900
C477        C  0.33321414  0.70317565  0.24702380     0.00700
C478        C  0.34563748  0.69160597  0.27899314    -0.11500
C479        C  0.36859800  0.67168924  0.27861175     0.03200
C480        C  0.37889454  0.66326942  0.24569311    -0.10900
H481        H  0.33448038  0.70317955  0.18979745     0.08800
H482        H  0.33789563  0.69856411  0.30423623     0.06300
H483        H  0.39647179  0.64787487  0.24493004     0.06200
C484        C  0.41809839  0.60752951  0.47109696     0.03200
C485        C  0.40770041  0.61592443  0.50397446    -0.12900
C486        C  0.41984578  0.60456492  0.03603118     0.00700
C487        C  0.44284852  0.58498011  0.03522029    -0.11500
C488        C  0.45373406  0.57643363  0.00283656     0.03200
C489        C  0.44124947  0.58781809  0.47081737    -0.10900
H490        H  0.38998187  0.63119154  0.00467147     0.08800
H491        H  0.45236780  0.57649871  0.06005478     0.05500
H492        H  0.44910088  0.58089507  0.44561446     0.06200
C493        C  0.17157008  0.86095494  0.22124285     0.03200
C494        C  0.19290297  0.83945386  0.21986639    -0.12900
C495        C  0.20672838  0.82843069  0.25111046     0.00700
C496        C  0.19897823  0.83923615  0.28408955    -0.11500
C497        C  0.17774388  0.86078230  0.28609875     0.03200
C498        C  0.16409443  0.87144153  0.25447491    -0.10900
H499        H  0.19841195  0.83096865  0.19439825     0.08800
H500        H  0.20927930  0.83065415  0.30839867     0.06300
H501        H  0.14820125  0.88852347  0.25564054     0.06200
C502        C  0.11185132  0.92139149  0.46406760     0.03200
C503        C  0.09044293  0.94276786  0.46608810    -0.12900
C504        C  0.08244231  0.95337897  0.99908600     0.00700
C505        C  0.09628986  0.94239384  0.03033588    -0.11500
C506        C  0.11781767  0.92107813  0.02895200     0.03200
C507        C  0.12549104  0.91074616  0.49569764    -0.10900
H508        H  0.08012044  0.95132170  0.44177835     0.08800
H509        H  0.09060901  0.95073908  0.05581259     0.06300
H510        H  0.14146882  0.89377627  0.99452174     0.06200
O511        O  0.05024288  0.54599620  0.03196306    -0.72900
O512        O  0.48935575  0.98353855  0.03201540    -0.73800
O513        O  0.05117468  0.98437783  0.03069505    -0.62500
O514        O  0.48855407  0.54485120  0.03203369    -0.70900
O515        O  0.48663797  0.54652711  0.47306710    -0.70400
O516        O  0.04856167  0.98650346  0.47175853    -0.61700
O517        O  0.48747746  0.98580895  0.47307535    -0.74200
O518        O  0.04770488  0.54750154  0.47300148    -0.73000
Cu519      Cu  0.01995570  0.51463513  0.03382754     1.04600
Cu520      Cu  0.01757978  0.51662494  0.47078682     1.04300
C521        C  0.05846924  0.55671718  0.00234751     0.93300
C522        C  0.47854803  0.97507199  0.50234547     0.92500
C523        C  0.05968568  0.97582553  0.00068562     0.84600
C524        C  0.47750027  0.55503587  0.00265311     0.90900
O525        O  0.30133518  0.79444765  0.27645623    -0.72900
O526        O  0.23997837  0.73389348  0.27775818    -0.73800
O527        O  0.30103060  0.73372338  0.27695059    -0.62500
O528        O  0.24027682  0.79492766  0.27842340    -0.70900
O529        O  0.23726684  0.79675247  0.21949012    -0.70400
O530        O  0.29870606  0.73515781  0.21798097    -0.61700
O531        O  0.23704110  0.73512378  0.21880988    -0.74200
O532        O  0.29905156  0.79649086  0.21750652    -0.73000
Cu533      Cu  0.27068690  0.76422137  0.27933645     1.04600
Cu534      Cu  0.26787462  0.76592394  0.21629708     1.04300
C535        C  0.31023977  0.80490077  0.24702820     0.93300
C536        C  0.22883451  0.72470801  0.24859569     0.92500
C537        C  0.30978362  0.72492428  0.24731911     0.84600
C538        C  0.22912083  0.80563141  0.24950898     0.90900
C539        C  0.11559564  0.61160841  0.03136419     0.03200
C540        C  0.12310647  0.62320038  0.99801791    -0.12900
C541        C  0.10945606  0.61357410  0.46661503     0.00700
C542        C  0.08830728  0.59201141  0.46862819    -0.11500
C543        C  0.08053778  0.57992608  0.00151778     0.03200
C544        C  0.09416897  0.58997091  0.03289133    -0.10900
H545        H  0.13916007  0.64021502  0.99648123     0.08800
H546        H  0.07822035  0.58428449  0.44422632     0.06300
H547        H  0.08854902  0.58060187  0.05840216     0.06200
C548        C  0.17738459  0.66856983  0.28505732     0.03200
C549        C  0.16358553  0.65885854  0.25377226    -0.12900
C550        C  0.17105958  0.67025791  0.22032259     0.00700
C551        C  0.19260188  0.69176014  0.21856921    -0.11500
C552        C  0.20643432  0.70182859  0.24979308     0.03200
C553        C  0.19868367  0.68998120  0.28280491    -0.10900
H554        H  0.14746657  0.64191845  0.25547647     0.08800
H555        H  0.19821816  0.70096585  0.19297241     0.06300
H556        H  0.20892561  0.69774136  0.30709702     0.06200
C557        C  0.16935409  0.65690230  0.32035697    -0.05200
C558        C  0.19094505  0.64942022  0.34618225    -0.05100
C559        C  0.18353502  0.63975626  0.38011009    -0.23300
C560        C  0.15438820  0.63752542  0.38883946     0.19000
C561        C  0.13249521  0.64482009  0.36296543     0.16200
C562        C  0.14011410  0.65434487  0.32887536    -0.18300
C563        C  0.10334816  0.64258917  0.37168435    -0.20100
C564        C  0.09593311  0.63290421  0.40559488    -0.12700
C565        C  0.11751801  0.62539983  0.43141341     0.04000
C566        C  0.14676275  0.62798106  0.42292432    -0.24800
H567        H  0.21361888  0.65102840  0.34004653     0.09100
H568        H  0.20058995  0.63414945  0.39954507     0.12700
H569        H  0.12334490  0.66039299  0.30922880     0.12600
H570        H  0.08629554  0.64819396  0.35224582     0.12400
H571        H  0.07325763  0.63126311  0.41171313     0.12900
H572        H  0.16352310  0.62191006  0.44257222     0.14900
C573        C  0.15633304  0.65958457  0.18739896    -0.05200
C574        C  0.12632766  0.65434773  0.18636250    -0.05100
C575        C  0.11240838  0.64378393  0.15577214    -0.23300
C576        C  0.12822102  0.63820551  0.12557980     0.19000
C577        C  0.15836772  0.64347711  0.12622546     0.16200
C578        C  0.17220522  0.65414144  0.15704898    -0.18300
C579        C  0.17419260  0.63789555  0.09605213    -0.20100
C580        C  0.16028523  0.62735790  0.06545342    -0.12700
C581        C  0.13027661  0.62215371  0.06437880     0.04000
C582        C  0.11438669  0.62755443  0.09473244    -0.24800
H583        H  0.11352726  0.65869449  0.20919152     0.09100
H584        H  0.08926931  0.63999193  0.15573735     0.12700
H585        H  0.19539418  0.65773275  0.15761625     0.12600
H586        H  0.19733339  0.64168097  0.09610070     0.12400
H587        H  0.17309540  0.62302849  0.04262667     0.12900
H588        H  0.09119884  0.62395725  0.09413672     0.14900
C589        C  0.13219511  0.90956956  0.06229325    -0.05200
C590        C  0.16220954  0.90454815  0.06404746    -0.05100
C591        C  0.17586992  0.89411783  0.09549740    -0.23300
C592        C  0.15976644  0.88850407  0.12580194     0.19000
C593        C  0.12958014  0.89339765  0.12436857     0.16200
C594        C  0.11600193  0.90381330  0.09266670    -0.18300
C595        C  0.11348130  0.88780011  0.15468530    -0.20100
C596        C  0.12715752  0.87743312  0.18616048    -0.12700
C597        C  0.15717107  0.87242040  0.18790356     0.04000
C598        C  0.17334957  0.87810791  0.15750691    -0.24800
H599        H  0.17522613  0.90912133  0.04119590     0.09100
H600        H  0.19904741  0.89055107  0.09615082     0.12700
H601        H  0.09278418  0.90718407  0.09154796     0.12600
H602        H  0.09030367  0.89136486  0.15403507     0.12400
H603        H  0.11416201  0.87290523  0.20904328     0.12900
H604        H  0.19656554  0.87471739  0.15862442     0.14900
C605        C  0.11958697  0.90994059  0.42896400    -0.05200
C606        C  0.09785951  0.90436494  0.40289871    -0.05100
C607        C  0.10488324  0.89370466  0.36984724    -0.23300
C608        C  0.13380917  0.88838638  0.36211577     0.19000
C609        C  0.15586788  0.89379611  0.38807186     0.16200
C610        C  0.14864541  0.90450513  0.42127270    -0.18300
C611        C  0.18479377  0.88845395  0.38033570    -0.20100
C612        C  0.19180770  0.87779626  0.34726977    -0.12700
C613        C  0.17006918  0.87226447  0.32120102     0.04000
C614        C  0.14102173  0.87769776  0.32890989    -0.24800
H615        H  0.07529310  0.90791754  0.40824404     0.09100
H616        H  0.08766128  0.88957203  0.35034993     0.12700
H617        H  0.16566476  0.90897117  0.44092809     0.12600
H618        H  0.20201858  0.89256543  0.39983642     0.12400
H619        H  0.21436623  0.87420476  0.34191512     0.12900
H620        H  0.12399644  0.87323863  0.30925813     0.14900
C621        C  0.40878141  0.61304343  0.07065190    -0.05200
C622        C  0.40337467  0.59188832  0.09702680    -0.05100
C623        C  0.39431588  0.59975382  0.13042514    -0.23300
C624        C  0.39064736  0.62893954  0.13805052     0.19000
C625        C  0.39581356  0.65038258  0.11156735     0.16200
C626        C  0.40470052  0.64228795  0.07798586    -0.18300
C627        C  0.39216339  0.67956834  0.11919970    -0.20100
C628        C  0.38315205  0.68743698  0.15261760    -0.12700
C629        C  0.37774444  0.66628334  0.17899906     0.04000
C630        C  0.38177689  0.63703494  0.17163922    -0.24800
H631        H  0.40616895  0.56919979  0.09172871     0.09100
H632        H  0.39032590  0.58303426  0.15032108     0.12700
H633        H  0.40910725  0.65871770  0.05785219     0.12600
H634        H  0.39616010  0.69628826  0.09930566     0.12400
H635        H  0.38041201  0.71012998  0.15792871     0.12900
H636        H  0.37737312  0.62060239  0.19177010     0.14900
C637        C  0.40442648  0.61895382  0.43718240    -0.05200
C638        C  0.37414214  0.62154872  0.43341108    -0.05100
C639        C  0.36111475  0.63235656  0.40173342    -0.23300
C640        C  0.37810185  0.64082153  0.37313193     0.19000
C641        C  0.40854713  0.63823754  0.37650168     0.16200
C642        C  0.42149627  0.62732739  0.40842327    -0.18300
C643        C  0.42553677  0.64668298  0.34789596    -0.20100
C644        C  0.41251680  0.65750424  0.31622526    -0.12700
C645        C  0.38223962  0.66014925  0.31247505     0.04000
C646        C  0.36515871  0.65176958  0.34122257    -0.24800
H647        H  0.36044507  0.61487222  0.45489754     0.09100
H648        H  0.33773823  0.63405754  0.39960245     0.12700
H649        H  0.44486997  0.62573796  0.41105272     0.12600
H650        H  0.44891234  0.64496775  0.35002410     0.12400
H651        H  0.42621425  0.66417547  0.29473658     0.12900
H652        H  0.34178772  0.65340621  0.33859765     0.14900
C653        C  0.37999631  0.86323645  0.31840794    -0.05200
C654        C  0.38693428  0.84194733  0.34459619    -0.05100
C655        C  0.39607974  0.84969853  0.37879369    -0.23300
C656        C  0.39831436  0.87888542  0.38740865     0.19000
C657        C  0.39163078  0.90047130  0.36114208     0.16200
C658        C  0.38263595  0.89250785  0.32679069    -0.18300
C659        C  0.39387271  0.92965839  0.36975373    -0.20100
C660        C  0.40297758  0.93740906  0.40396535    -0.12700
C661        C  0.40985839  0.91611963  0.43017415     0.04000
C662        C  0.40726208  0.88684864  0.42177729    -0.24800
H663        H  0.38518900  0.81925167  0.33856680     0.09100
H664        H  0.40123335  0.83288109  0.39853646     0.12700
H665        H  0.37694631  0.90903798  0.30685435     0.12600
H666        H  0.38872701  0.94647589  0.35000850     0.12400
H667        H  0.40469031  0.96010486  0.41000474     0.12900
H668        H  0.41290379  0.87032072  0.44173534     0.14900
C669        C  0.37637679  0.87591768  0.18561492    -0.05200
C670        C  0.38262182  0.90567870  0.18583881    -0.05100
C671        C  0.39310600  0.91991173  0.15573893    -0.23300
C672        C  0.39753201  0.90472235  0.12465559     0.19000
C673        C  0.39113979  0.87486622  0.12392844     0.16200
C674        C  0.38058028  0.86067010  0.15432343    -0.18300
C675        C  0.39557384  0.85967702  0.09284859    -0.20100
C676        C  0.40612168  0.87389493  0.06277369    -0.12700
C677        C  0.41240677  0.90364865  0.06300610     0.04000
C678        C  0.40812602  0.91890959  0.09427538    -0.24800
H679        H  0.37915458  0.91809689  0.20932450     0.09100
H680        H  0.39773478  0.94282465  0.15678863     0.12700
H681        H  0.37616861  0.83768801  0.15382176     0.12600
H682        H  0.39094372  0.83676464  0.09179937     0.12400
H683        H  0.40964601  0.86145458  0.03932269     0.12900
H684        H  0.41254643  0.94188850  0.09479488     0.14900
C685        C  0.36602588  0.86094606  0.71830350     0.03200
C686        C  0.37809119  0.86813895  0.75179643    -0.12900
C687        C  0.36824090  0.85492441  0.78302883     0.00700
C688        C  0.34621907  0.83429310  0.78076246    -0.11500
C689        C  0.33378354  0.82662811  0.74779382     0.03200
C690        C  0.34391292  0.83992379  0.71650447    -0.10900
H691        H  0.39547475  0.88380473  0.75363531     0.08800
H692        H  0.33836873  0.82458724  0.80509713     0.06300
H693        H  0.33418062  0.83444630  0.69094444     0.06200
C694        C  0.42131294  0.92447747  0.96563601     0.03200
C695        C  0.44324022  0.94519529  0.96813027    -0.12900
C696        C  0.45530717  0.95301898  0.50124641     0.00700
C697        C  0.44496198  0.93972339  0.53241646    -0.11500
C698        C  0.42296458  0.91859603  0.53039538     0.03200
C699        C  0.41121847  0.91129210  0.99676456    -0.10900
H700        H  0.45126089  0.95490871  0.94389049     0.08800
H701        H  0.45441091  0.94533181  0.55807766     0.06300
H702        H  0.39390555  0.89558384  0.49474184     0.06200
C703        C  0.36677979  0.67478894  0.71366379     0.03200
C704        C  0.34394831  0.69456659  0.71457852    -0.12900
C705        C  0.33321157  0.70318292  0.74701429     0.00700
C706        C  0.34563936  0.69161822  0.77898376    -0.11500
C707        C  0.36860528  0.67170790  0.77860342     0.03200
C708        C  0.37890499  0.66329102  0.74568546    -0.10900
H709        H  0.33447573  0.70318447  0.68978762     0.08800
H710        H  0.33789530  0.69857442  0.80422690     0.06300
H711        H  0.39648697  0.64790205  0.74492376     0.06200
C712        C  0.41807685  0.60753317  0.97108986     0.03200
C713        C  0.40767237  0.61592256  0.00396650    -0.12900
C714        C  0.41987987  0.60457242  0.53603890     0.00700
C715        C  0.44288291  0.58498757  0.53522642    -0.11500
C716        C  0.45376162  0.57643426  0.50284181     0.03200
C717        C  0.44122814  0.58782256  0.97081175    -0.10900
H718        H  0.39000914  0.63119268  0.50468021     0.08800
H719        H  0.45240703  0.57651044  0.56006044     0.05500
H720        H  0.44908475  0.58090415  0.94560908     0.06200
C721        C  0.17156903  0.86096298  0.72125670     0.03200
C722        C  0.19289731  0.83945750  0.71988177    -0.12900
C723        C  0.20671630  0.82842818  0.75112660     0.00700
C724        C  0.19896375  0.83923185  0.78410594    -0.11500
C725        C  0.17773317  0.86078237  0.78611371     0.03200
C726        C  0.16409063  0.87144780  0.75448847    -0.10900
H727        H  0.19840767  0.83097346  0.69441352     0.08800
H728        H  0.20926051  0.83064576  0.80841603     0.06300
H729        H  0.14820037  0.88853263  0.75565319     0.06200
C730        C  0.11183051  0.92140190  0.96407073     0.03200
C731        C  0.09042024  0.94277609  0.96609077    -0.12900
C732        C  0.08246504  0.95337041  0.49908375     0.00700
C733        C  0.09631073  0.94238257  0.53033306    -0.11500
C734        C  0.11783624  0.92106450  0.52894916     0.03200
C735        C  0.12547195  0.91075904  0.99570076    -0.10900
H736        H  0.08009670  0.95132837  0.94178084     0.08800
H737        H  0.09063026  0.95072798  0.55580992     0.06300
H738        H  0.14148664  0.89376203  0.49451831     0.06200
O739        O  0.05027102  0.54599128  0.53195815    -0.72900
O740        O  0.48938020  0.98353539  0.53202553    -0.73800
O741        O  0.05120012  0.98437167  0.53069513    -0.62500
O742        O  0.48858215  0.54485011  0.53203754    -0.70900
O743        O  0.48661481  0.54653175  0.97306316    -0.70400
O744        O  0.04853823  0.98650940  0.97175815    -0.61700
O745        O  0.48745424  0.98581485  0.97306514    -0.74200
O746        O  0.04768167  0.54750638  0.97300613    -0.73000
Cu747      Cu  0.01998260  0.51463129  0.53382997     1.04600
Cu748      Cu  0.01755668  0.51663056  0.97078413     1.04300
C749        C  0.05849397  0.55671332  0.50234148     0.93300
C750        C  0.47852445  0.97507668  0.00233426     0.92500
C751        C  0.05970972  0.97581879  0.50068512     0.84600
C752        C  0.47752647  0.55503403  0.50265736     0.90900
O753        O  0.30132161  0.79444691  0.77645233    -0.72900
O754        O  0.23996974  0.73388617  0.77776806    -0.73800
O755        O  0.30102304  0.73372264  0.77694453    -0.62500
O756        O  0.24026410  0.79492140  0.77843542    -0.70900
O757        O  0.23724950  0.79674816  0.71950216    -0.70400
O758        O  0.29869257  0.73515685  0.71797502    -0.61700
O759        O  0.23702628  0.73511933  0.71881996    -0.74200
O760        O  0.29903264  0.79649030  0.71750268    -0.73000
Cu761      Cu  0.27067664  0.76421716  0.77933930     1.04600
Cu762      Cu  0.26785797  0.76592102  0.71630013     1.04300
C763        C  0.31022193  0.80490188  0.74702299     0.93300
C764        C  0.22882267  0.72470217  0.74860659     0.92500
C765        C  0.30977519  0.72492552  0.74731158     0.84600
C766        C  0.22910622  0.80562646  0.74952274     0.90900
C767        C  0.11559925  0.61162478  0.53135848     0.03200
C768        C  0.12310523  0.62322233  0.49801376    -0.12900
C769        C  0.10944983  0.61355852  0.96661997     0.00700
C770        C  0.08829088  0.59200660  0.96863545    -0.11500
C771        C  0.08055753  0.57992714  0.50151011     0.03200
C772        C  0.09418336  0.58997684  0.53288409    -0.10900
H773        H  0.13915035  0.64024541  0.49647849     0.08800
H774        H  0.07819961  0.58428323  0.94423392     0.06300
H775        H  0.08856719  0.58060434  0.55839395     0.06200
C776        C  0.17737652  0.66855520  0.78506187     0.03200
C777        C  0.16357529  0.65884995  0.75377552    -0.12900
C778        C  0.17104498  0.67025762  0.72032898     0.00700
C779        C  0.19258516  0.69176206  0.71857965    -0.11500
C780        C  0.20642186  0.70182314  0.74980437     0.03200
C781        C  0.19867521  0.68996811  0.78281406    -0.10900
H782        H  0.14745854  0.64190733  0.75547642     0.08800
H783        H  0.19819755  0.70097424  0.69298549     0.06300
H784        H  0.20892003  0.69772284  0.80710742     0.06200
C785        C  0.16934702  0.65687919  0.82035744    -0.05200
C786        C  0.19093810  0.64938630  0.84617711    -0.05100
C787        C  0.18352847  0.63971610  0.88010278    -0.23300
C788        C  0.15438195  0.63749173  0.88883587     0.19000
C789        C  0.13248869  0.64479479  0.86296566     0.16200
C790        C  0.14010721  0.65432361  0.82887710    -0.18300
C791        C  0.10334201  0.64257155  0.87168799    -0.20100
C792        C  0.09592765  0.63289004  0.90560001    -0.12700
C793        C  0.11751282  0.62537941  0.93141610     0.04000
C794        C  0.14675725  0.62794894  0.92292175    -0.24800
H795        H  0.21361141  0.65099249  0.84003951     0.09100
H796        H  0.20058352  0.63410265  0.89953408     0.12700
H797        H  0.12333826  0.66037879  0.80923409     0.12600
H798        H  0.08628892  0.64818235  0.85225196     0.12400
H799        H  0.07325247  0.63125711  0.91172182     0.12900
H800        H  0.16351770  0.62187261  0.94256729     0.14900
C801        C  0.15631994  0.65958748  0.68740321    -0.05200
C802        C  0.12631707  0.65433624  0.68636863    -0.05100
C803        C  0.11240096  0.64377281  0.65577607    -0.23300
C804        C  0.12821427  0.63821054  0.62557956     0.19000
C805        C  0.15835809  0.64349786  0.62622332     0.16200
C806        C  0.17219243  0.65416036  0.65704915    -0.18300
C807        C  0.17418404  0.63793316  0.59604609    -0.20100
C808        C  0.16028056  0.62739493  0.56544578    -0.12700
C809        C  0.13027496  0.62217390  0.56437345     0.04000
C810        C  0.11438367  0.62755944  0.59473028    -0.24800
H811        H  0.11351609  0.65867063  0.70920071     0.09100
H812        H  0.08926409  0.63996871  0.65574281     0.12700
H813        H  0.19537956  0.65776183  0.65761487     0.12600
H814        H  0.19732246  0.64173138  0.59609311     0.12400
H815        H  0.17309191  0.62307733  0.54261648     0.12900
H816        H  0.09119759  0.62394955  0.59413626     0.14900
C817        C  0.13221043  0.90955442  0.56229171    -0.05200
C818        C  0.16222444  0.90453036  0.56404995    -0.05100
C819        C  0.17588233  0.89410639  0.59550474    -0.23300
C820        C  0.15977664  0.88850173  0.62580979     0.19000
C821        C  0.12959051  0.89339643  0.62437134     0.16200
C822        C  0.11601492  0.90380482  0.59266476    -0.18300
C823        C  0.11348917  0.88780761  0.65468794    -0.20100
C824        C  0.12716220  0.87744645  0.68616772    -0.12700
C825        C  0.15717523  0.87243120  0.68791569     0.04000
C826        C  0.17335685  0.87811240  0.65751983    -0.24800
H827        H  0.17524268  0.90909813  0.54119877     0.09100
H828        H  0.19905960  0.89053815  0.59616156     0.12700
H829        H  0.09279707  0.90717691  0.59154278     0.12600
H830        H  0.09031168  0.89137409  0.65403357     0.12400
H831        H  0.11416422  0.87292349  0.70904984     0.12900
H832        H  0.19657267  0.87472027  0.65864113     0.14900
C833        C  0.11956738  0.90995089  0.92896766    -0.05200
C834        C  0.09784117  0.90437461  0.90290079    -0.05100
C835        C  0.10486674  0.89371313  0.86985049    -0.23300
C836        C  0.13379327  0.88839304  0.86212261     0.19000
C837        C  0.15585047  0.89380296  0.88808055     0.16200
C838        C  0.14862622  0.90451499  0.92127895    -0.18300
C839        C  0.18477682  0.88845689  0.88034932    -0.20100
C840        C  0.19179281  0.87779503  0.84728634    -0.12700
C841        C  0.17005616  0.87226452  0.82121512     0.04000
C842        C  0.14100819  0.87770180  0.82891897    -0.24800
H843        H  0.07527434  0.90792748  0.90824416     0.09100
H844        H  0.08764564  0.88957967  0.85035173     0.12700
H845        H  0.16564469  0.90898168  0.94093523     0.12600
H846        H  0.20200023  0.89256787  0.89985236     0.12400
H847        H  0.21435187  0.87419982  0.84193516     0.12900
H848        H  0.12398460  0.87324348  0.80926519     0.14900
C849        C  0.40881787  0.61305323  0.57066046    -0.05200
C850        C  0.40342342  0.59190050  0.59704288    -0.05100
C851        C  0.39436163  0.59976797  0.63043909    -0.23300
C852        C  0.39067653  0.62895341  0.63805468     0.19000
C853        C  0.39583048  0.65039404  0.61156462     0.16200
C854        C  0.40472157  0.64229745  0.57798555    -0.18300
C855        C  0.39216313  0.67957954  0.61918741    -0.20100
C856        C  0.38314752  0.68744997  0.65260286    -0.12700
C857        C  0.37775248  0.66629866  0.67899133     0.04000
C858        C  0.38180151  0.63705079  0.67164051    -0.24800
H859        H  0.40622826  0.56921187  0.59175172     0.09100
H860        H  0.39038103  0.58305006  0.65034086     0.12700
H861        H  0.40911838  0.65872586  0.55784632     0.12600
H862        H  0.39614976  0.69629740  0.59928789     0.12400
H863        H  0.38039529  0.71014298  0.65790679     0.12900
H864        H  0.37740724  0.62061949  0.69177654     0.14900
C865        C  0.40441113  0.61896149  0.93717432    -0.05200
C866        C  0.37412726  0.62155278  0.93339405    -0.05100
C867        C  0.36110530  0.63236258  0.90171445    -0.23300
C868        C  0.37809763  0.64083271  0.87311988     0.19000
C869        C  0.40854258  0.63825143  0.87649778     0.16200
C870        C  0.42148642  0.62733986  0.90842184    -0.18300
C871        C  0.42553709  0.64670060  0.84789744    -0.20100
C872        C  0.41252153  0.65752347  0.81622448    -0.12700
C873        C  0.38224455  0.66016689  0.81246749     0.04000
C874        C  0.36515941  0.65178259  0.84120916    -0.24800
H875        H  0.36042626  0.61487225  0.95487548     0.09100
H876        H  0.33772886  0.63406113  0.89957617     0.12700
H877        H  0.44485960  0.62575211  0.91105806     0.12600
H878        H  0.44891243  0.64498711  0.85003198     0.12400
H879        H  0.42622221  0.66419724  0.79473923     0.12900
H880        H  0.34178856  0.65341709  0.83857851     0.14900
C881        C  0.37996339  0.86325800  0.81839714    -0.05200
C882        C  0.38691487  0.84196864  0.84457943    -0.05100
C883        C  0.39606285  0.84971915  0.87877582    -0.23300
C884        C  0.39828606  0.87890549  0.88739599     0.19000
C885        C  0.39158870  0.90049237  0.86113552     0.16200
C886        C  0.38259161  0.89252956  0.82678433    -0.18300
C887        C  0.39381987  0.92967908  0.86975325    -0.20100
C888        C  0.40292748  0.93742787  0.90396505    -0.12700
C889        C  0.40982091  0.91613678  0.93016750     0.04000
C890        C  0.40723586  0.88686671  0.92176419    -0.24800
H891        H  0.38517846  0.81927323  0.83854639     0.09100
H892        H  0.40122746  0.83290129  0.89851369     0.12700
H893        H  0.37689261  0.90905926  0.80685190     0.12600
H894        H  0.38866408  0.94649758  0.85001265     0.12400
H895        H  0.40463268  0.96012315  0.91000975     0.12900
H896        H  0.41288811  0.87033779  0.94171734     0.14900
C897        C  0.37634420  0.87593197  0.68560554    -0.05200
C898        C  0.38257851  0.90569530  0.68582523    -0.05100
C899        C  0.39306828  0.91992743  0.65572788    -0.23300
C900        C  0.39751081  0.90473470  0.62465142     0.19000
C901        C  0.39112711  0.87487649  0.62392786     0.16200
C902        C  0.38056167  0.86068136  0.65432009    -0.18300
C903        C  0.39557697  0.85968380  0.59285492    -0.20100
C904        C  0.40613304  0.87389973  0.56278371    -0.12700
C905        C  0.41241114  0.90365501  0.56301295     0.04000
C906        C  0.40811380  0.91892011  0.59427481    -0.24800
H907        H  0.37910032  0.91811539  0.70930636     0.09100
H908        H  0.39768953  0.94284195  0.65677459     0.12700
H909        H  0.37615797  0.83769761  0.65382187     0.12600
H910        H  0.39095300  0.83676997  0.59180831     0.12400
H911        H  0.40967002  0.86145663  0.53933827     0.12900
H912        H  0.41252891  0.94190011  0.59479092     0.14900
C913        C  0.86605771  0.36093139  0.21831282     0.03200
C914        C  0.87812699  0.36811789  0.25180637    -0.12900
C915        C  0.86827364  0.35490464  0.28303853     0.00700
C916        C  0.84624530  0.33428042  0.28077067    -0.11500
C917        C  0.83380633  0.32662145  0.24780151     0.03200
C918        C  0.84393809  0.33991636  0.21651309    -0.10900
H919        H  0.89551511  0.38377822  0.25364598     0.08800
H920        H  0.83839204  0.32457568  0.30510471     0.06300
H921        H  0.83420250  0.33444357  0.19095289     0.06200
C922        C  0.92134528  0.42446374  0.46564399     0.03200
C923        C  0.94327360  0.44518051  0.46814047    -0.12900
C924        C  0.95528390  0.45302422  0.00123447     0.00700
C925        C  0.94494945  0.43971985  0.03240437    -0.11500
C926        C  0.92295149  0.41859331  0.03038617     0.03200
C927        C  0.91124087  0.41128709  0.49677202    -0.10900
H928        H  0.95130221  0.45488653  0.44390110     0.08800
H929        H  0.95440716  0.44532130  0.05806354     0.06300
H930        H  0.89388356  0.39558727  0.99473615     0.06200
C931        C  0.86677347  0.17477313  0.21367230     0.03200
C932        C  0.84394881  0.19455776  0.21458794    -0.12900
C933        C  0.83321396  0.20317568  0.24702370     0.00700
C934        C  0.84563738  0.19160598  0.27899308    -0.11500
C935        C  0.86859783  0.17168934  0.27861172     0.03200
C936        C  0.87889431  0.16326961  0.24569306    -0.10900
H937        H  0.83447989  0.20317957  0.18979719     0.08800
H938        H  0.83789544  0.19856381  0.30423609     0.06300
H939        H  0.89647134  0.14787544  0.24493001     0.06200
C940        C  0.91809833  0.10752955  0.47109699     0.03200
C941        C  0.90770044  0.11592452  0.50397446    -0.12900
C942        C  0.91984560  0.10456509  0.03603110     0.00700
C943        C  0.94284837  0.08498020  0.03522021    -0.11500
C944        C  0.95373397  0.07643369  0.00283658     0.03200
C945        C  0.94124941  0.08781814  0.47081742    -0.10900
H946        H  0.88998130  0.13119166  0.00467149     0.08800
H947        H  0.95236742  0.07649869  0.06005462     0.05500
H948        H  0.94910048  0.08089492  0.44561458     0.06200
C949        C  0.67157014  0.36095487  0.22124279     0.03200
C950        C  0.69290309  0.33945387  0.21986631    -0.12900
C951        C  0.70672844  0.32843076  0.25111034     0.00700
C952        C  0.69897824  0.33923622  0.28408941    -0.11500
C953        C  0.67774393  0.36078235  0.28609867     0.03200
C954        C  0.66409454  0.37144150  0.25447487    -0.10900
H955        H  0.69841191  0.33096841  0.19439803     0.08800
H956        H  0.70927944  0.33065451  0.30839844     0.06300
H957        H  0.64820122  0.38852340  0.25564055     0.06200
C958        C  0.61185137  0.42139141  0.46406769     0.03200
C959        C  0.59044301  0.44276789  0.46608820    -0.12900
C960        C  0.58244238  0.45337901  0.99908595     0.00700
C961        C  0.59628993  0.44239391  0.03033583    -0.11500
C962        C  0.61781771  0.42107811  0.02895200     0.03200
C963        C  0.62549115  0.41074610  0.49569765    -0.10900
H964        H  0.58012072  0.45132182  0.44177854     0.08800
H965        H  0.59060936  0.45073952  0.05581253     0.06300
H966        H  0.64146883  0.39377591  0.99452175     0.06200
O967        O  0.55024307  0.04599621  0.03196305    -0.72900
O968        O  0.98935567  0.48353855  0.03201536    -0.73800
O969        O  0.55117475  0.48437790  0.03069504    -0.62500
O970        O  0.98855399  0.04485122  0.03203365    -0.70900
O971        O  0.98663784  0.04652721  0.47306709    -0.70400
O972        O  0.54856171  0.48650339  0.47175854    -0.61700
O973        O  0.98747734  0.48580894  0.47307534    -0.74200
O974        O  0.54770487  0.04750159  0.47300147    -0.73000
Cu975      Cu  0.51995576  0.01463512  0.03382753     1.04600
Cu976      Cu  0.51757984  0.01662494  0.47078682     1.04300
C977        C  0.55846934  0.05671719  0.00234751     0.93300
C978        C  0.97854787  0.47507203  0.50234547     0.92500
C979        C  0.55968572  0.47582550  0.00068564     0.84600
C980        C  0.97750020  0.05503592  0.00265310     0.90900
O981        O  0.80133513  0.29444775  0.27645622    -0.72900
O982        O  0.73997822  0.23389351  0.27775818    -0.73800
O983        O  0.80103051  0.23372345  0.27695059    -0.62500
O984        O  0.74027677  0.29492772  0.27842341    -0.70900
O985        O  0.73726676  0.29675261  0.21949012    -0.70400
O986        O  0.79870599  0.23515783  0.21798095    -0.61700
O987        O  0.73704099  0.23512391  0.21880991    -0.74200
O988        O  0.79905153  0.29649094  0.21750651    -0.73000
Cu989      Cu  0.77068684  0.26422136  0.27933645     1.04600
Cu990      Cu  0.76787457  0.26592398  0.21629709     1.04300
C991        C  0.81023978  0.30490082  0.24702820     0.93300
C992        C  0.72883451  0.22470796  0.24859568     0.92500
C993        C  0.80978353  0.22492434  0.24731912     0.84600
C994        C  0.72912076  0.30563146  0.24950901     0.90900
C995        C  0.61559562  0.11160845  0.03136412     0.03200
C996        C  0.62310660  0.12320039  0.99801787    -0.12900
C997        C  0.60945607  0.11357404  0.46661502     0.00700
C998        C  0.58830730  0.09201139  0.46862821    -0.11500
C999        C  0.58053771  0.07992618  0.00151774     0.03200
C1000       C  0.59416897  0.08997094  0.03289126    -0.10900
H1001       H  0.63916021  0.14021491  0.99648119     0.08800
H1002       H  0.57822082  0.08428409  0.44422632     0.06300
H1003       H  0.58854888  0.08060217  0.05840207     0.06200
C1004       C  0.67738451  0.16856985  0.28505731     0.03200
C1005       C  0.66358541  0.15885857  0.25377227    -0.12900
C1006       C  0.67105952  0.17025795  0.22032260     0.00700
C1007       C  0.69260186  0.19176020  0.21856922    -0.11500
C1008       C  0.70643430  0.20182858  0.24979309     0.03200
C1009       C  0.69868356  0.18998126  0.28280494    -0.10900
H1010       H  0.64746639  0.14191856  0.25547648     0.08800
H1011       H  0.69821828  0.20096589  0.19297244     0.06300
H1012       H  0.70892561  0.19774135  0.30709699     0.06200
C1013       C  0.66935386  0.15690241  0.32035692    -0.05200
C1014       C  0.69094471  0.14942032  0.34618213    -0.05100
C1015       C  0.68353467  0.13975634  0.38010999    -0.23300
C1016       C  0.65438788  0.13752556  0.38883926     0.19000
C1017       C  0.63249499  0.14482008  0.36296529     0.16200
C1018       C  0.64011394  0.15434483  0.32887522    -0.18300
C1019       C  0.60334795  0.14258911  0.37168432    -0.20100
C1020       C  0.59593292  0.13290420  0.40559489    -0.12700
C1021       C  0.61751785  0.12539981  0.43141330     0.04000
C1022       C  0.64676257  0.12798115  0.42292420    -0.24800
H1023       H  0.71361834  0.15102864  0.34004667     0.09100
H1024       H  0.70058943  0.13415010  0.39954482     0.12700
H1025       H  0.62334478  0.16039289  0.30922867     0.12600
H1026       H  0.58629515  0.14819356  0.35224568     0.12400
H1027       H  0.57325748  0.13126298  0.41171323     0.12900
H1028       H  0.66352267  0.12191067  0.44257198     0.14900
C1029       C  0.65633286  0.15958448  0.18739904    -0.05200
C1030       C  0.62632759  0.15434776  0.18636251    -0.05100
C1031       C  0.61240826  0.14378389  0.15577218    -0.23300
C1032       C  0.62822080  0.13820553  0.12557973     0.19000
C1033       C  0.65836750  0.14347706  0.12622543     0.16200
C1034       C  0.67220499  0.15414147  0.15704898    -0.18300
C1035       C  0.67419252  0.13789566  0.09605219    -0.20100
C1036       C  0.66028504  0.12735798  0.06545355    -0.12700
C1037       C  0.63027633  0.12215379  0.06437889     0.04000
C1038       C  0.61438643  0.12755440  0.09473248    -0.24800
H1039       H  0.61352721  0.15869445  0.20919160     0.09100
H1040       H  0.58926931  0.13999221  0.15573735     0.12700
H1041       H  0.69539350  0.15773268  0.15761630     0.12600
H1042       H  0.69733325  0.14168118  0.09610058     0.12400
H1043       H  0.67309502  0.12302905  0.04262685     0.12900
H1044       H  0.59119832  0.12395689  0.09413687     0.14900
C1045       C  0.63219493  0.40956948  0.06229337    -0.05200
C1046       C  0.66220943  0.40454813  0.06404756    -0.05100
C1047       C  0.67586992  0.39411777  0.09549737    -0.23300
C1048       C  0.65976654  0.38850406  0.12580191     0.19000
C1049       C  0.62958014  0.39339767  0.12436855     0.16200
C1050       C  0.61600177  0.40381333  0.09266677    -0.18300
C1051       C  0.61348149  0.38780004  0.15468530    -0.20100
C1052       C  0.62715779  0.37743309  0.18616043    -0.12700
C1053       C  0.65717131  0.37242045  0.18790356     0.04000
C1054       C  0.67334976  0.37810791  0.15750686    -0.24800
H1055       H  0.67522581  0.40912127  0.04119603     0.09100
H1056       H  0.69904741  0.39055100  0.09615054     0.12700
H1057       H  0.59278371  0.40718412  0.09154798     0.12600
H1058       H  0.59030418  0.39136520  0.15403529     0.12400
H1059       H  0.61416219  0.37290512  0.20904320     0.12900
H1060       H  0.69656599  0.37471786  0.15862454     0.14900
C1061       C  0.61958710  0.40994061  0.42896402    -0.05200
C1062       C  0.59785964  0.40436498  0.40289867    -0.05100
C1063       C  0.60488324  0.39370470  0.36984714    -0.23300
C1064       C  0.63380924  0.38838637  0.36211582     0.19000
C1065       C  0.65586786  0.39379607  0.38807182     0.16200
C1066       C  0.64864554  0.40450520  0.42127265    -0.18300
C1067       C  0.68479384  0.38845391  0.38033562    -0.20100
C1068       C  0.69180790  0.37779618  0.34726976    -0.12700
C1069       C  0.67006951  0.37226449  0.32120108     0.04000
C1070       C  0.64102194  0.37769776  0.32890999    -0.24800
H1071       H  0.57529319  0.40791791  0.40824397     0.09100
H1072       H  0.58766126  0.38957162  0.35035002     0.12700
H1073       H  0.66566501  0.40897079  0.44092829     0.12600
H1074       H  0.70201824  0.39256526  0.39983634     0.12400
H1075       H  0.71436687  0.37420463  0.34191519     0.12900
H1076       H  0.62399695  0.37323857  0.30925844     0.14900
C1077       C  0.90878129  0.11304347  0.07065186    -0.05200
C1078       C  0.90337464  0.09188828  0.09702691    -0.05100
C1079       C  0.89431583  0.09975376  0.13042530    -0.23300
C1080       C  0.89064722  0.12893947  0.13805056     0.19000
C1081       C  0.89581358  0.15038257  0.11156733     0.16200
C1082       C  0.90470051  0.14228797  0.07798587    -0.18300
C1083       C  0.89216338  0.17956831  0.11919978    -0.20100
C1084       C  0.88315204  0.18743686  0.15261768    -0.12700
C1085       C  0.87774442  0.16628334  0.17899912     0.04000
C1086       C  0.88177685  0.13703496  0.17163926    -0.24800
H1087       H  0.90616882  0.06919976  0.09172850     0.09100
H1088       H  0.89032546  0.08303409  0.15032147     0.12700
H1089       H  0.90910714  0.15871791  0.05785203     0.12600
H1090       H  0.89615975  0.19628827  0.09930577     0.12400
H1091       H  0.88041218  0.21012988  0.15792894     0.12900
H1092       H  0.87737293  0.12060244  0.19177013     0.14900
C1093       C  0.90442648  0.11895387  0.43718235    -0.05200
C1094       C  0.87414217  0.12154872  0.43341099    -0.05100
C1095       C  0.86111476  0.13235657  0.40173337    -0.23300
C1096       C  0.87810167  0.14082164  0.37313187     0.19000
C1097       C  0.90854701  0.13823753  0.37650162     0.16200
C1098       C  0.92149626  0.12732740  0.40842322    -0.18300
C1099       C  0.92553672  0.14668304  0.34789599    -0.20100
C1100       C  0.91251667  0.15750425  0.31622528    -0.12700
C1101       C  0.88223944  0.16014933  0.31247506     0.04000
C1102       C  0.86515850  0.15176959  0.34122251    -0.24800
H1103       H  0.86044520  0.11487267  0.45489761     0.09100
H1104       H  0.83773821  0.13405745  0.39960241     0.12700
H1105       H  0.94486986  0.12573788  0.41105260     0.12600
H1106       H  0.94891222  0.14496790  0.35002422     0.12400
H1107       H  0.92621408  0.16417539  0.29473643     0.12900
H1108       H  0.84178719  0.15340661  0.33859771     0.14900
C1109       C  0.87999636  0.36323634  0.31840801    -0.05200
C1110       C  0.88693431  0.34194733  0.34459620    -0.05100
C1111       C  0.89607979  0.34969857  0.37879371    -0.23300
C1112       C  0.89831437  0.37888549  0.38740871     0.19000
C1113       C  0.89163080  0.40047132  0.36114218     0.16200
C1114       C  0.88263593  0.39250773  0.32679081    -0.18300
C1115       C  0.89387264  0.42965860  0.36975374    -0.20100
C1116       C  0.90297748  0.43740934  0.40396535    -0.12700
C1117       C  0.90985831  0.41611988  0.43017413     0.04000
C1118       C  0.90726200  0.38684884  0.42177728    -0.24800
H1119       H  0.88518910  0.31925167  0.33856666     0.09100
H1120       H  0.90123385  0.33288112  0.39853642     0.12700
H1121       H  0.87694673  0.40903760  0.30685457     0.12600
H1122       H  0.88872691  0.44647614  0.35000833     0.12400
H1123       H  0.90469025  0.46010543  0.41000491     0.12900
H1124       H  0.91290375  0.37032093  0.44173537     0.14900
C1125       C  0.87637690  0.37591777  0.18561500    -0.05200
C1126       C  0.88262185  0.40567860  0.18583878    -0.05100
C1127       C  0.89310610  0.41991158  0.15573889    -0.23300
C1128       C  0.89753208  0.40472231  0.12465550     0.19000
C1129       C  0.89113993  0.37486639  0.12392834     0.16200
C1130       C  0.88058028  0.36067027  0.15432336    -0.18300
C1131       C  0.89557387  0.35967708  0.09284848    -0.20100
C1132       C  0.90612172  0.37389485  0.06277359    -0.12700
C1133       C  0.91240684  0.40364858  0.06300613     0.04000
C1134       C  0.90812614  0.41890963  0.09427541    -0.24800
H1135       H  0.87915497  0.41809689  0.20932446     0.09100
H1136       H  0.89773498  0.44282408  0.15678866     0.12700
H1137       H  0.87616894  0.33768860  0.15382180     0.12600
H1138       H  0.89094357  0.33676476  0.09179921     0.12400
H1139       H  0.90964635  0.36145436  0.03932268     0.12900
H1140       H  0.91254685  0.44188847  0.09479504     0.14900
C1141       C  0.86602593  0.36094599  0.71830356     0.03200
C1142       C  0.87809118  0.36813898  0.75179648    -0.12900
C1143       C  0.86824090  0.35492434  0.78302887     0.00700
C1144       C  0.84621904  0.33429308  0.78076249    -0.11500
C1145       C  0.83378350  0.32662810  0.74779391     0.03200
C1146       C  0.84391297  0.33992373  0.71650450    -0.10900
H1147       H  0.89547465  0.38380470  0.75363534     0.08800
H1148       H  0.83836846  0.32458729  0.80509728     0.06300
H1149       H  0.83418095  0.33444610  0.69094445     0.06200
C1150       C  0.92131284  0.42447737  0.96563609     0.03200
C1151       C  0.94324020  0.44519517  0.96813032    -0.12900
C1152       C  0.95530703  0.45301902  0.50124636     0.00700
C1153       C  0.94496188  0.43972341  0.53241640    -0.11500
C1154       C  0.92296452  0.41859589  0.53039530     0.03200
C1155       C  0.91121839  0.41129201  0.99676464    -0.10900
H1156       H  0.95126068  0.45490861  0.94389062     0.08800
H1157       H  0.95441094  0.44533164  0.55807744     0.06300
H1158       H  0.89390552  0.39558317  0.49474181     0.06200
C1159       C  0.86677979  0.17478893  0.71366378     0.03200
C1160       C  0.84394840  0.19456656  0.71457847    -0.12900
C1161       C  0.83321165  0.20318290  0.74701422     0.00700
C1162       C  0.84563951  0.19161828  0.77898370    -0.11500
C1163       C  0.86860519  0.17170780  0.77860336     0.03200
C1164       C  0.87890494  0.16329106  0.74568545    -0.10900
H1165       H  0.83447574  0.20318407  0.68978763     0.08800
H1166       H  0.83789561  0.19857433  0.80422666     0.06300
H1167       H  0.89648655  0.14790200  0.74492376     0.06200
C1168       C  0.91807674  0.10753331  0.97108993     0.03200
C1169       C  0.90767211  0.11592268  0.00396650    -0.12900
C1170       C  0.91987994  0.10457246  0.53603891     0.00700
C1171       C  0.94288293  0.08498752  0.53522645    -0.11500
C1172       C  0.95376153  0.07643415  0.50284188     0.03200
C1173       C  0.94122809  0.08782263  0.97081182    -0.10900
H1174       H  0.89000966  0.13119324  0.50468017     0.08800
H1175       H  0.95240693  0.07651024  0.56006053     0.05500
H1176       H  0.94908466  0.08090423  0.94560927     0.06200
C1177       C  0.67156893  0.36096315  0.72125682     0.03200
C1178       C  0.69289721  0.33945766  0.71988187    -0.12900
C1179       C  0.70671618  0.32842828  0.75112664     0.00700
C1180       C  0.69896365  0.33923199  0.78410595    -0.11500
C1181       C  0.67773300  0.36078252  0.78611364     0.03200
C1182       C  0.66409055  0.37144796  0.75448848    -0.10900
H1183       H  0.69840769  0.33097385  0.69441378     0.08800
H1184       H  0.70926005  0.33064575  0.80841601     0.06300
H1185       H  0.64820027  0.38853313  0.75565320     0.06200
C1186       C  0.61183057  0.42140186  0.96407070     0.03200
C1187       C  0.59042032  0.44277611  0.96609075    -0.12900
C1188       C  0.58246506  0.45337038  0.49908383     0.00700
C1189       C  0.59631077  0.44238258  0.53033311    -0.11500
C1190       C  0.61783627  0.42106440  0.52894917     0.03200
C1191       C  0.62547206  0.41075911  0.99570075    -0.10900
H1192       H  0.58009674  0.45132848  0.94178069     0.08800
H1193       H  0.59063028  0.45072801  0.55580992     0.06300
H1194       H  0.64148663  0.39376179  0.49451831     0.06200
O1195       O  0.55027104  0.04599143  0.53195820    -0.72900
O1196       O  0.98938006  0.48353538  0.53202554    -0.73800
O1197       O  0.55120018  0.48437153  0.53069514    -0.62500
O1198       O  0.98858210  0.04485011  0.53203756    -0.70900
O1199       O  0.98661468  0.04653173  0.97306318    -0.70400
O1200       O  0.54853832  0.48650937  0.97175818    -0.61700
O1201       O  0.98745409  0.48581490  0.97306511    -0.74200
O1202       O  0.54768173  0.04750638  0.97300617    -0.73000
Cu1203     Cu  0.51998264  0.01463132  0.53382996     1.04600
Cu1204     Cu  0.51755675  0.01663052  0.97078414     1.04300
C1205       C  0.55849401  0.05671333  0.50234147     0.93300
C1206       C  0.97852444  0.47507659  0.00233422     0.92500
C1207       C  0.55970980  0.47581874  0.50068512     0.84600
C1208       C  0.97752642  0.05503409  0.50265739     0.90900
O1209       O  0.80132160  0.29444678  0.77645229    -0.72900
O1210       O  0.73996984  0.23388620  0.77776809    -0.73800
O1211       O  0.80102311  0.23372265  0.77694455    -0.62500
O1212       O  0.74026409  0.29492152  0.77843541    -0.70900
O1213       O  0.73724944  0.29674804  0.71950219    -0.70400
O1214       O  0.79869265  0.23515684  0.71797503    -0.61700
O1215       O  0.73702634  0.23511933  0.71881995    -0.74200
O1216       O  0.79903262  0.29649040  0.71750265    -0.73000
Cu1217     Cu  0.77067666  0.26421719  0.77933930     1.04600
Cu1218     Cu  0.76785802  0.26592102  0.71630014     1.04300
C1219       C  0.81022201  0.30490176  0.74702298     0.93300
C1220       C  0.72882272  0.22470223  0.74860661     0.92500
C1221       C  0.80977527  0.22492552  0.74731159     0.84600
C1222       C  0.72910617  0.30562650  0.74952272     0.90900
C1223       C  0.61559920  0.11162474  0.53135848     0.03200
C1224       C  0.62310525  0.12322230  0.49801374    -0.12900
C1225       C  0.60944980  0.11355860  0.96661995     0.00700
C1226       C  0.58829086  0.09200661  0.96863545    -0.11500
C1227       C  0.58055750  0.07992711  0.50151011     0.03200
C1228       C  0.59418329  0.08997680  0.53288411    -0.10900
H1229       H  0.63915007  0.14024536  0.49647850     0.08800
H1230       H  0.57819944  0.08428330  0.94423394     0.06300
H1231       H  0.58856674  0.08060472  0.55839404     0.06200
C1232       C  0.67737658  0.16855539  0.78506188     0.03200
C1233       C  0.66357541  0.15885015  0.75377547    -0.12900
C1234       C  0.67104502  0.17025776  0.72032887     0.00700
C1235       C  0.69258513  0.19176219  0.71857958    -0.11500
C1236       C  0.70642196  0.20182316  0.74980435     0.03200
C1237       C  0.69867529  0.18996815  0.78281409    -0.10900
H1238       H  0.64745856  0.14190799  0.75547641     0.08800
H1239       H  0.69819777  0.20097420  0.69298529     0.06300
H1240       H  0.70892055  0.19772245  0.80710745     0.06200
C1241       C  0.66934692  0.15687920  0.82035734    -0.05200
C1242       C  0.69093813  0.14938631  0.84617713    -0.05100
C1243       C  0.68352848  0.13971607  0.88010276    -0.23300
C1244       C  0.65438202  0.13749179  0.88883577     0.19000
C1245       C  0.63248875  0.14479478  0.86296558     0.16200
C1246       C  0.64010712  0.15432373  0.82887705    -0.18300
C1247       C  0.60334213  0.14257160  0.87168808    -0.20100
C1248       C  0.59592766  0.13289000  0.90560003    -0.12700
C1249       C  0.61751278  0.12537944  0.93141604     0.04000
C1250       C  0.64675726  0.12794889  0.92292163    -0.24800
H1251       H  0.71361134  0.15099210  0.84003949     0.09100
H1252       H  0.70058356  0.13410219  0.89953409     0.12700
H1253       H  0.62333787  0.16037931  0.80923398     0.12600
H1254       H  0.58628924  0.14818230  0.85225214     0.12400
H1255       H  0.57325245  0.13125749  0.91172185     0.12900
H1256       H  0.66351753  0.12187247  0.94256696     0.14900
C1257       C  0.65631958  0.15958766  0.68740324    -0.05200
C1258       C  0.62631673  0.15433622  0.68636872    -0.05100
C1259       C  0.61240075  0.14377278  0.65577612    -0.23300
C1260       C  0.62821430  0.13821050  0.62557963     0.19000
C1261       C  0.65835812  0.14349786  0.62622339     0.16200
C1262       C  0.67219221  0.15416034  0.65704927    -0.18300
C1263       C  0.67418425  0.13793324  0.59604620    -0.20100
C1264       C  0.66028080  0.12739497  0.56544581    -0.12700
C1265       C  0.63027510  0.12217399  0.56437342     0.04000
C1266       C  0.61438383  0.12755939  0.59473029    -0.24800
H1267       H  0.61351560  0.15867086  0.70920090     0.09100
H1268       H  0.58926366  0.13996863  0.65574269     0.12700
H1269       H  0.69537902  0.15776226  0.65761486     0.12600
H1270       H  0.69732300  0.14173146  0.59609332     0.12400
H1271       H  0.67309199  0.12307786  0.54261642     0.12900
H1272       H  0.59119805  0.12394920  0.59413632     0.14900
C1273       C  0.63221054  0.40955437  0.56229164    -0.05200
C1274       C  0.66222451  0.40453031  0.56404991    -0.05100
C1275       C  0.67588235  0.39410636  0.59550470    -0.23300
C1276       C  0.65977661  0.38850172  0.62580977     0.19000
C1277       C  0.62959063  0.39339636  0.62437128     0.16200
C1278       C  0.61601499  0.40380473  0.59266470    -0.18300
C1279       C  0.61348927  0.38780752  0.65468789    -0.20100
C1280       C  0.62716233  0.37744641  0.68616772    -0.12700
C1281       C  0.65717524  0.37243119  0.68791574     0.04000
C1282       C  0.67335689  0.37811242  0.65751987    -0.24800
H1283       H  0.67524292  0.40909789  0.54119859     0.09100
H1284       H  0.69905947  0.39053816  0.59616160     0.12700
H1285       H  0.59279722  0.40717683  0.59154270     0.12600
H1286       H  0.59031214  0.39137390  0.65403352     0.12400
H1287       H  0.61416422  0.37292335  0.70904974     0.12900
H1288       H  0.69657265  0.37472072  0.65864132     0.14900
C1289       C  0.61956753  0.40995097  0.92896764    -0.05200
C1290       C  0.59784133  0.40437464  0.90290092    -0.05100
C1291       C  0.60486688  0.39371315  0.86985059    -0.23300
C1292       C  0.63379327  0.38839302  0.86212258     0.19000
C1293       C  0.65585048  0.39380289  0.88808054     0.16200
C1294       C  0.64862634  0.40451492  0.92127898    -0.18300
C1295       C  0.68477667  0.38845689  0.88034933    -0.20100
C1296       C  0.69179249  0.37779503  0.84728632    -0.12700
C1297       C  0.67005581  0.37226461  0.82121496     0.04000
C1298       C  0.64100795  0.37770176  0.82891883    -0.24800
H1299       H  0.57527470  0.40792795  0.90824399     0.09100
H1300       H  0.58764586  0.38957979  0.85035207     0.12700
H1301       H  0.66564479  0.40898130  0.94093521     0.12600
H1302       H  0.70200022  0.39256753  0.89985228     0.12400
H1303       H  0.71435120  0.37420028  0.84193513     0.12900
H1304       H  0.62398415  0.37324359  0.80926487     0.14900
C1305       C  0.90881781  0.11305345  0.57066041    -0.05200
C1306       C  0.90342339  0.09190074  0.59704293    -0.05100
C1307       C  0.89436156  0.09976815  0.63043916    -0.23300
C1308       C  0.89067661  0.12895344  0.63805477     0.19000
C1309       C  0.89583045  0.15039407  0.61156462     0.16200
C1310       C  0.90472162  0.14229759  0.57798553    -0.18300
C1311       C  0.89216317  0.17957951  0.61918744    -0.20100
C1312       C  0.88314755  0.18744987  0.65260292    -0.12700
C1313       C  0.87775243  0.16629853  0.67899133     0.04000
C1314       C  0.88180152  0.13705069  0.67164059    -0.24800
H1315       H  0.90622787  0.06921250  0.59175177     0.09100
H1316       H  0.89038063  0.08305009  0.65034075     0.12700
H1317       H  0.90911846  0.15872607  0.55784648     0.12600
H1318       H  0.89615009  0.19629750  0.59928813     0.12400
H1319       H  0.88039482  0.21014264  0.65790667     0.12900
H1320       H  0.87740760  0.12061944  0.69177658     0.14900
C1321       C  0.90441135  0.11896157  0.93717423    -0.05200
C1322       C  0.87412742  0.12155275  0.93339393    -0.05100
C1323       C  0.86110542  0.13236259  0.90171446    -0.23300
C1324       C  0.87809760  0.14083262  0.87311983     0.19000
C1325       C  0.90854284  0.13825148  0.87649782     0.16200
C1326       C  0.92148660  0.12733986  0.90842182    -0.18300
C1327       C  0.92553715  0.14670054  0.84789745    -0.20100
C1328       C  0.91252149  0.15752336  0.81622457    -0.12700
C1329       C  0.88224435  0.16016683  0.81246761     0.04000
C1330       C  0.86515928  0.15178258  0.84120923    -0.24800
H1331       H  0.86042659  0.11487214  0.95487511     0.09100
H1332       H  0.83772885  0.13406075  0.89957630     0.12700
H1333       H  0.94486020  0.12575248  0.91105826     0.12600
H1334       H  0.94891293  0.14498705  0.85003184     0.12400
H1335       H  0.92622184  0.16419713  0.79473934     0.12900
H1336       H  0.84178810  0.15341681  0.83857849     0.14900
C1337       C  0.87996321  0.36325816  0.81839706    -0.05200
C1338       C  0.88691484  0.34196880  0.84457935    -0.05100
C1339       C  0.89606276  0.34971927  0.87877576    -0.23300
C1340       C  0.89828593  0.37890558  0.88739585     0.19000
C1341       C  0.89158859  0.40049244  0.86113537     0.16200
C1342       C  0.88259154  0.39252969  0.82678416    -0.18300
C1343       C  0.89381984  0.42967910  0.86975329    -0.20100
C1344       C  0.90292745  0.43742797  0.90396511    -0.12700
C1345       C  0.90982086  0.41613689  0.93016745     0.04000
C1346       C  0.90723572  0.38686681  0.92176409    -0.24800
H1347       H  0.88517813  0.31927339  0.83854637     0.09100
H1348       H  0.90122733  0.33290147  0.89851370     0.12700
H1349       H  0.87689218  0.40905963  0.80685163     0.12600
H1350       H  0.88866405  0.44649761  0.85001270     0.12400
H1351       H  0.90463311  0.46012326  0.91000972     0.12900
H1352       H  0.91288786  0.37033808  0.94171707     0.14900
C1353       C  0.87634425  0.37593191  0.68560559    -0.05200
C1354       C  0.88257848  0.40569521  0.68582528    -0.05100
C1355       C  0.89306820  0.41992730  0.65572787    -0.23300
C1356       C  0.89751081  0.40473472  0.62465136     0.19000
C1357       C  0.89112720  0.37487644  0.62392784     0.16200
C1358       C  0.88056170  0.36068133  0.65432007    -0.18300
C1359       C  0.89557699  0.35968386  0.59285495    -0.20100
C1360       C  0.90613313  0.37389981  0.56278385    -0.12700
C1361       C  0.91241109  0.40365519  0.56301299     0.04000
C1362       C  0.90811382  0.41892025  0.59427481    -0.24800
H1363       H  0.87910001  0.41811547  0.70930632     0.09100
H1364       H  0.89768993  0.44284154  0.65677477     0.12700
H1365       H  0.87615824  0.33769751  0.65382195     0.12600
H1366       H  0.89095321  0.33676991  0.59180838     0.12400
H1367       H  0.90966985  0.36145680  0.53933842     0.12900
H1368       H  0.91252888  0.44190065  0.59479088     0.14900
C1369       C  0.86605777  0.86093137  0.21831287     0.03200
C1370       C  0.87812707  0.86811791  0.25180637    -0.12900
C1371       C  0.86827365  0.85490470  0.28303853     0.00700
C1372       C  0.84624528  0.83428042  0.28077068    -0.11500
C1373       C  0.83380627  0.82662143  0.24780152     0.03200
C1374       C  0.84393807  0.83991639  0.21651312    -0.10900
H1375       H  0.89551529  0.88377814  0.25364593     0.08800
H1376       H  0.83839196  0.82457574  0.30510471     0.06300
H1377       H  0.83420243  0.83444389  0.19095296     0.06200
C1378       C  0.92134535  0.92446383  0.46564402     0.03200
C1379       C  0.94327370  0.94518049  0.46814046    -0.12900
C1380       C  0.95528396  0.95302415  0.00123447     0.00700
C1381       C  0.94494951  0.93971984  0.03240442    -0.11500
C1382       C  0.92295160  0.91859333  0.03038618     0.03200
C1383       C  0.91124101  0.91128718  0.49677212    -0.10900
H1384       H  0.95130235  0.95488651  0.44390105     0.08800
H1385       H  0.95440737  0.94532113  0.05806354     0.06300
H1386       H  0.89388361  0.89558763  0.99473615     0.06200
C1387       C  0.86677351  0.67477303  0.21367234     0.03200
C1388       C  0.84394896  0.69455777  0.21458800    -0.12900
C1389       C  0.83321404  0.70317564  0.24702373     0.00700
C1390       C  0.84563740  0.69160594  0.27899314    -0.11500
C1391       C  0.86859790  0.67168933  0.27861179     0.03200
C1392       C  0.87889436  0.66326957  0.24569311    -0.10900
H1393       H  0.83448002  0.70317961  0.18979723     0.08800
H1394       H  0.83789554  0.69856406  0.30423624     0.06300
H1395       H  0.89647127  0.64787504  0.24493006     0.06200
C1396       C  0.91809838  0.60752945  0.47109697     0.03200
C1397       C  0.90770050  0.61592439  0.50397447    -0.12900
C1398       C  0.91984560  0.60456504  0.03603112     0.00700
C1399       C  0.94284838  0.58498018  0.03522023    -0.11500
C1400       C  0.95373394  0.57643369  0.00283657     0.03200
C1401       C  0.94124947  0.58781817  0.47081737    -0.10900
H1402       H  0.88998141  0.63119168  0.00467147     0.08800
H1403       H  0.95236750  0.57649872  0.06005462     0.05500
H1404       H  0.94910060  0.58089499  0.44561457     0.06200
C1405       C  0.67157010  0.86095490  0.22124287     0.03200
C1406       C  0.69290301  0.83945388  0.21986641    -0.12900
C1407       C  0.70672846  0.82843076  0.25111046     0.00700
C1408       C  0.69897825  0.83923617  0.28408951    -0.11500
C1409       C  0.67774390  0.86078227  0.28609874     0.03200
C1410       C  0.66409448  0.87144149  0.25447492    -0.10900
H1411       H  0.69841204  0.83096876  0.19439822     0.08800
H1412       H  0.70927938  0.83065425  0.30839864     0.06300
H1413       H  0.64820115  0.88852336  0.25564058     0.06200
C1414       C  0.61185131  0.92139148  0.46406763     0.03200
C1415       C  0.59044295  0.94276793  0.46608811    -0.12900
C1416       C  0.58244232  0.95337893  0.99908591     0.00700
C1417       C  0.59628991  0.94239383  0.03033580    -0.11500
C1418       C  0.61781764  0.92107811  0.02895196     0.03200
C1419       C  0.62549108  0.91074612  0.49569764    -0.10900
H1420       H  0.58012044  0.95132182  0.44177836     0.08800
H1421       H  0.59060927  0.95073917  0.05581244     0.06300
H1422       H  0.64146882  0.89377636  0.99452171     0.06200
O1423       O  0.55024298  0.54599623  0.03196306    -0.72900
O1424       O  0.98935566  0.98353847  0.03201538    -0.73800
O1425       O  0.55117474  0.98437777  0.03069505    -0.62500
O1426       O  0.98855397  0.54485124  0.03203368    -0.70900
O1427       O  0.98663787  0.54652719  0.47306711    -0.70400
O1428       O  0.54856175  0.98650346  0.47175855    -0.61700
O1429       O  0.98747738  0.98580900  0.47307532    -0.74200
O1430       O  0.54770493  0.54750151  0.47300145    -0.73000
Cu1431     Cu  0.51995575  0.51463514  0.03382754     1.04600
Cu1432     Cu  0.51757983  0.51662491  0.47078681     1.04300
C1433       C  0.55846941  0.55671715  0.00234753     0.93300
C1434       C  0.97854797  0.97507204  0.50234544     0.92500
C1435       C  0.55968583  0.97582556  0.00068563     0.84600
C1436       C  0.97750008  0.55503583  0.00265311     0.90900
O1437       O  0.80133521  0.79444762  0.27645622    -0.72900
O1438       O  0.73997838  0.73389343  0.27775820    -0.73800
O1439       O  0.80103065  0.73372339  0.27695059    -0.62500
O1440       O  0.74027689  0.79492763  0.27842339    -0.70900
O1441       O  0.73726677  0.79675253  0.21949011    -0.70400
O1442       O  0.79870596  0.73515777  0.21798096    -0.61700
O1443       O  0.73704101  0.73512387  0.21880990    -0.74200
O1444       O  0.79905152  0.79649081  0.21750648    -0.73000
Cu1445     Cu  0.77068689  0.76422135  0.27933645     1.04600
Cu1446     Cu  0.76787457  0.76592396  0.21629707     1.04300
C1447       C  0.81023967  0.80490082  0.24702817     0.93300
C1448       C  0.72883450  0.72470801  0.24859571     0.92500
C1449       C  0.80978357  0.72492425  0.24731910     0.84600
C1450       C  0.72912080  0.80563138  0.24950901     0.90900
C1451       C  0.61559576  0.61160847  0.03136407     0.03200
C1452       C  0.62310663  0.62320045  0.99801786    -0.12900
C1453       C  0.60945603  0.61357405  0.46661510     0.00700
C1454       C  0.58830736  0.59201136  0.46862827    -0.11500
C1455       C  0.58053784  0.57992617  0.00151775     0.03200
C1456       C  0.59416909  0.58997095  0.03289124    -0.10900
H1457       H  0.63916054  0.64021506  0.99648116     0.08800
H1458       H  0.57822072  0.58428433  0.44422645     0.06300
H1459       H  0.58854938  0.58060181  0.05840201     0.06200
C1460       C  0.67738451  0.66856986  0.28505730     0.03200
C1461       C  0.66358549  0.65885851  0.25377225    -0.12900
C1462       C  0.67105948  0.67025791  0.22032260     0.00700
C1463       C  0.69260185  0.69176012  0.21856924    -0.11500
C1464       C  0.70643427  0.70182863  0.24979312     0.03200
C1465       C  0.69868360  0.68998124  0.28280495    -0.10900
H1466       H  0.64746649  0.64191843  0.25547646     0.08800
H1467       H  0.69821813  0.70096586  0.19297246     0.06300
H1468       H  0.70892552  0.69774138  0.30709709     0.06200
C1469       C  0.66935387  0.65690233  0.32035690    -0.05200
C1470       C  0.69094472  0.64942025  0.34618215    -0.05100
C1471       C  0.68353468  0.63975628  0.38011001    -0.23300
C1472       C  0.65438791  0.63752547  0.38883929     0.19000
C1473       C  0.63249497  0.64482013  0.36296532     0.16200
C1474       C  0.64011395  0.65434490  0.32887527    -0.18300
C1475       C  0.60334793  0.64258918  0.37168432    -0.20100
C1476       C  0.59593293  0.63290421  0.40559489    -0.12700
C1477       C  0.61751787  0.62539986  0.43141336     0.04000
C1478       C  0.64676259  0.62798110  0.42292422    -0.24800
H1479       H  0.71361833  0.65102839  0.34004656     0.09100
H1480       H  0.70058945  0.63414954  0.39954475     0.12700
H1481       H  0.62334480  0.66039301  0.30922873     0.12600
H1482       H  0.58629509  0.64819398  0.35224574     0.12400
H1483       H  0.57325752  0.63126307  0.41171332     0.12900
H1484       H  0.66352276  0.62191016  0.44257190     0.14900
C1485       C  0.65633275  0.65958455  0.18739906    -0.05200
C1486       C  0.62632747  0.65434772  0.18636259    -0.05100
C1487       C  0.61240822  0.64378393  0.15577220    -0.23300
C1488       C  0.62822085  0.63820545  0.12557975     0.19000
C1489       C  0.65836750  0.64347709  0.12622542     0.16200
C1490       C  0.67220497  0.65414141  0.15704900    -0.18300
C1491       C  0.67419260  0.63789557  0.09605219    -0.20100
C1492       C  0.66028518  0.62735790  0.06545351    -0.12700
C1493       C  0.63027651  0.62215370  0.06437879     0.04000
C1494       C  0.61438654  0.62755441  0.09473237    -0.24800
H1495       H  0.61352690  0.65869454  0.20919176     0.09100
H1496       H  0.58926928  0.63999192  0.15573737     0.12700
H1497       H  0.69539351  0.65773271  0.15761626     0.12600
H1498       H  0.69733330  0.64168101  0.09610082     0.12400
H1499       H  0.67309539  0.62302849  0.04262676     0.12900
H1500       H  0.59119841  0.62395724  0.09413658     0.14900
C1501       C  0.63219490  0.90956952  0.06229337    -0.05200
C1502       C  0.66220940  0.90454812  0.06404756    -0.05100
C1503       C  0.67586993  0.89411783  0.09549740    -0.23300
C1504       C  0.65976657  0.88850406  0.12580193     0.19000
C1505       C  0.62958017  0.89339765  0.12436857     0.16200
C1506       C  0.61600176  0.90381329  0.09266679    -0.18300
C1507       C  0.61348152  0.88780007  0.15468534    -0.20100
C1508       C  0.62715782  0.87743309  0.18616044    -0.12700
C1509       C  0.65717131  0.87242038  0.18790355     0.04000
C1510       C  0.67334978  0.87810791  0.15750689    -0.24800
H1511       H  0.67522578  0.90912131  0.04119604     0.09100
H1512       H  0.69904744  0.89055111  0.09615060     0.12700
H1513       H  0.59278370  0.90718407  0.09154808     0.12600
H1514       H  0.59030419  0.89136478  0.15403519     0.12400
H1515       H  0.61416221  0.87290518  0.20904322     0.12900
H1516       H  0.69656600  0.87471741  0.15862439     0.14900
C1517       C  0.61958710  0.90994061  0.42896407    -0.05200
C1518       C  0.59785965  0.90436492  0.40289872    -0.05100
C1519       C  0.60488326  0.89370464  0.36984720    -0.23300
C1520       C  0.63380927  0.88838640  0.36211584     0.19000
C1521       C  0.65586787  0.89379610  0.38807187     0.16200
C1522       C  0.64864551  0.90450515  0.42127277    -0.18300
C1523       C  0.68479383  0.88845392  0.38033563    -0.20100
C1524       C  0.69180792  0.87779623  0.34726973    -0.12700
C1525       C  0.67006953  0.87226448  0.32120107     0.04000
C1526       C  0.64102196  0.87769776  0.32890998    -0.24800
H1527       H  0.57529321  0.90791754  0.40824404     0.09100
H1528       H  0.58766134  0.88957205  0.35034995     0.12700
H1529       H  0.66566505  0.90897124  0.44092827     0.12600
H1530       H  0.70201825  0.89256540  0.39983629     0.12400
H1531       H  0.71436689  0.87420475  0.34191512     0.12900
H1532       H  0.62399698  0.87323867  0.30925839     0.14900
C1533       C  0.90878126  0.61304343  0.07065188    -0.05200
C1534       C  0.90337464  0.59188830  0.09702684    -0.05100
C1535       C  0.89431587  0.59975381  0.13042521    -0.23300
C1536       C  0.89064729  0.62893951  0.13805055     0.19000
C1537       C  0.89581355  0.65038255  0.11156738     0.16200
C1538       C  0.90470047  0.64228795  0.07798586    -0.18300
C1539       C  0.89216337  0.67956831  0.11919973    -0.20100
C1540       C  0.88315202  0.68743698  0.15261764    -0.12700
C1541       C  0.87774452  0.66628338  0.17899915     0.04000
C1542       C  0.88177692  0.63703496  0.17163930    -0.24800
H1543       H  0.90616881  0.56919978  0.09172864     0.09100
H1544       H  0.89032552  0.58303421  0.15032109     0.12700
H1545       H  0.90910707  0.65871769  0.05785214     0.12600
H1546       H  0.89615974  0.69628820  0.09930564     0.12400
H1547       H  0.88041214  0.71012996  0.15792879     0.12900
H1548       H  0.87737324  0.62060243  0.19177024     0.14900
C1549       C  0.90442646  0.61895382  0.43718242    -0.05200
C1550       C  0.87414217  0.62154872  0.43341108    -0.05100
C1551       C  0.86111478  0.63235655  0.40173342    -0.23300
C1552       C  0.87810183  0.64082154  0.37313191     0.19000
C1553       C  0.90854709  0.63823754  0.37650167     0.16200
C1554       C  0.92149628  0.62732739  0.40842328    -0.18300
C1555       C  0.92553681  0.64668299  0.34789595    -0.20100
C1556       C  0.91251678  0.65750424  0.31622526    -0.12700
C1557       C  0.88223961  0.66014927  0.31247506     0.04000
C1558       C  0.86515864  0.65176960  0.34122257    -0.24800
H1559       H  0.86044511  0.61487223  0.45489758     0.09100
H1560       H  0.83773827  0.63405753  0.39960242     0.12700
H1561       H  0.94486987  0.62573796  0.41105273     0.12600
H1562       H  0.94891227  0.64496775  0.35002409     0.12400
H1563       H  0.92621422  0.66417549  0.29473647     0.12900
H1564       H  0.84178769  0.65340622  0.33859765     0.14900
C1565       C  0.87999637  0.86323642  0.31840796    -0.05200
C1566       C  0.88693430  0.84194729  0.34459621    -0.05100
C1567       C  0.89607978  0.84969850  0.37879372    -0.23300
C1568       C  0.89831443  0.87888539  0.38740866     0.19000
C1569       C  0.89163073  0.90047126  0.36114212     0.16200
C1570       C  0.88263596  0.89250781  0.32679072    -0.18300
C1571       C  0.89387269  0.92965837  0.36975372    -0.20100
C1572       C  0.90297748  0.93740907  0.40396538    -0.12700
C1573       C  0.90985830  0.91611965  0.43017420     0.04000
C1574       C  0.90726200  0.88684866  0.42177735    -0.24800
H1575       H  0.88518907  0.81925165  0.33856672     0.09100
H1576       H  0.90123376  0.83288105  0.39853644     0.12700
H1577       H  0.87694665  0.90903791  0.30685433     0.12600
H1578       H  0.88872693  0.94647587  0.35000849     0.12400
H1579       H  0.90469014  0.96010487  0.41000478     0.12900
H1580       H  0.91290368  0.87032074  0.44173544     0.14900
C1581       C  0.87637692  0.87591767  0.18561496    -0.05200
C1582       C  0.88262187  0.90567870  0.18583878    -0.05100
C1583       C  0.89310611  0.91991171  0.15573892    -0.23300
C1584       C  0.89753206  0.90472239  0.12465555     0.19000
C1585       C  0.89113988  0.87486627  0.12392840     0.16200
C1586       C  0.88058025  0.86067016  0.15432335    -0.18300
C1587       C  0.89557384  0.85967704  0.09284851    -0.20100
C1588       C  0.90612171  0.87389491  0.06277364    -0.12700
C1589       C  0.91240682  0.90364862  0.06300611     0.04000
C1590       C  0.90812611  0.91890959  0.09427537    -0.24800
H1591       H  0.87915499  0.91809687  0.20932449     0.09100
H1592       H  0.89773500  0.94282460  0.15678872     0.12700
H1593       H  0.87616893  0.83768809  0.15382177     0.12600
H1594       H  0.89094352  0.83676470  0.09179923     0.12400
H1595       H  0.90964635  0.86145449  0.03932270     0.12900
H1596       H  0.91254683  0.94188849  0.09479492     0.14900
C1597       C  0.86602589  0.86094611  0.71830359     0.03200
C1598       C  0.87809122  0.86813899  0.75179650    -0.12900
C1599       C  0.86824087  0.85492439  0.78302889     0.00700
C1600       C  0.84621904  0.83429306  0.78076249    -0.11500
C1601       C  0.83378353  0.82662806  0.74779389     0.03200
C1602       C  0.84391299  0.83992374  0.71650452    -0.10900
H1603       H  0.89547471  0.88380481  0.75363540     0.08800
H1604       H  0.83836846  0.82458731  0.80509726     0.06300
H1605       H  0.83418097  0.83444614  0.69094450     0.06200
C1606       C  0.92131285  0.92447745  0.96563609     0.03200
C1607       C  0.94324015  0.94519521  0.96813033    -0.12900
C1608       C  0.95530718  0.95301900  0.50124643     0.00700
C1609       C  0.94496202  0.93972342  0.53241651    -0.11500
C1610       C  0.92296464  0.91859599  0.53039547     0.03200
C1611       C  0.91121845  0.91129210  0.99676463    -0.10900
H1612       H  0.95126061  0.95490868  0.94389065     0.08800
H1613       H  0.95441123  0.94533177  0.55807776     0.06300
H1614       H  0.89390561  0.89558376  0.49474197     0.06200
C1615       C  0.86677973  0.67478897  0.71366374     0.03200
C1616       C  0.84394832  0.69456657  0.71457847    -0.12900
C1617       C  0.83321157  0.70318296  0.74701422     0.00700
C1618       C  0.84563938  0.69161829  0.77898372    -0.11500
C1619       C  0.86860516  0.67170792  0.77860339     0.03200
C1620       C  0.87890491  0.66329107  0.74568543    -0.10900
H1621       H  0.83447573  0.70318437  0.68978754     0.08800
H1622       H  0.83789559  0.69857462  0.80422681     0.06300
H1623       H  0.89648655  0.64790209  0.74492375     0.06200
C1624       C  0.91807671  0.60753328  0.97108993     0.03200
C1625       C  0.90767217  0.61592267  0.00396650    -0.12900
C1626       C  0.91987999  0.60457235  0.53603894     0.00700
C1627       C  0.94288297  0.58498751  0.53522648    -0.11500
C1628       C  0.95376159  0.57643425  0.50284185     0.03200
C1629       C  0.94122801  0.58782262  0.97081182    -0.10900
H1630       H  0.89000962  0.63119271  0.50468020     0.08800
H1631       H  0.95240706  0.57651030  0.56006045     0.05500
H1632       H  0.94908443  0.58090414  0.94560923     0.06200
C1633       C  0.67156894  0.86096291  0.72125670     0.03200
C1634       C  0.69289729  0.83945755  0.71988176    -0.12900
C1635       C  0.70671621  0.82842821  0.75112658     0.00700
C1636       C  0.69896371  0.83923194  0.78410592    -0.11500
C1637       C  0.67773308  0.86078242  0.78611364     0.03200
C1638       C  0.66409059  0.87144781  0.75448843    -0.10900
H1639       H  0.69840761  0.83097344  0.69441358     0.08800
H1640       H  0.70926021  0.83064578  0.80841593     0.06300
H1641       H  0.64820028  0.88853262  0.75565317     0.06200
C1642       C  0.61183049  0.92140194  0.96407066     0.03200
C1643       C  0.59042025  0.94277612  0.96609070    -0.12900
C1644       C  0.58246506  0.95337044  0.49908375     0.00700
C1645       C  0.59631075  0.94238264  0.53033306    -0.11500
C1646       C  0.61783622  0.92106450  0.52894914     0.03200
C1647       C  0.62547196  0.91075911  0.99570072    -0.10900
H1648       H  0.58009634  0.95132822  0.94178069     0.08800
H1649       H  0.59063027  0.95072810  0.55580993     0.06300
H1650       H  0.64148651  0.89376191  0.49451835     0.06200
O1651       O  0.55027111  0.54599131  0.53195815    -0.72900
O1652       O  0.98938015  0.98353543  0.53202551    -0.73800
O1653       O  0.55120024  0.98437161  0.53069514    -0.62500
O1654       O  0.98858214  0.54485012  0.53203753    -0.70900
O1655       O  0.98661471  0.54653179  0.97306317    -0.70400
O1656       O  0.54853831  0.98650938  0.97175818    -0.61700
O1657       O  0.98745419  0.98581484  0.97306514    -0.74200
O1658       O  0.54768176  0.54750641  0.97300616    -0.73000
Cu1659     Cu  0.51998264  0.51463131  0.53382996     1.04600
Cu1660     Cu  0.51755672  0.51663053  0.97078415     1.04300
C1661       C  0.55849399  0.55671335  0.50234145     0.93300
C1662       C  0.97852436  0.97507665  0.00233423     0.92500
C1663       C  0.55970984  0.97581881  0.50068512     0.84600
C1664       C  0.97752639  0.55503406  0.50265738     0.90900
O1665       O  0.80132167  0.79444679  0.77645230    -0.72900
O1666       O  0.73996983  0.73388626  0.77776805    -0.73800
O1667       O  0.80102308  0.73372264  0.77694457    -0.62500
O1668       O  0.74026416  0.79492153  0.77843542    -0.70900
O1669       O  0.73724945  0.79674811  0.71950218    -0.70400
O1670       O  0.79869255  0.73515690  0.71797504    -0.61700
O1671       O  0.73702624  0.73511931  0.71881994    -0.74200
O1672       O  0.79903260  0.79649035  0.71750264    -0.73000
Cu1673     Cu  0.77067670  0.76421718  0.77933931     1.04600
Cu1674     Cu  0.76785798  0.76592101  0.71630014     1.04300
C1675       C  0.81022191  0.80490186  0.74702296     0.93300
C1676       C  0.72882273  0.72470218  0.74860661     0.92500
C1677       C  0.80977521  0.72492558  0.74731158     0.84600
C1678       C  0.72910618  0.80562647  0.74952274     0.90900
C1679       C  0.61559922  0.61162471  0.53135858     0.03200
C1680       C  0.62310523  0.62322223  0.49801381    -0.12900
C1681       C  0.60944994  0.61355863  0.96661997     0.00700
C1682       C  0.58829097  0.59200668  0.96863548    -0.11500
C1683       C  0.58055754  0.57992713  0.50151021     0.03200
C1684       C  0.59418337  0.58997676  0.53288420    -0.10900
H1685       H  0.63914995  0.64024534  0.49647856     0.08800
H1686       H  0.57819955  0.58428343  0.94423394     0.06300
H1687       H  0.58856692  0.58060441  0.55839417     0.06200
C1688       C  0.67737650  0.66855518  0.78506188     0.03200
C1689       C  0.66357525  0.65884989  0.75377554    -0.12900
C1690       C  0.67104491  0.67025755  0.72032897     0.00700
C1691       C  0.69258514  0.69176209  0.71857963    -0.11500
C1692       C  0.70642191  0.70182313  0.74980439     0.03200
C1693       C  0.69867522  0.68996811  0.78281405    -0.10900
H1694       H  0.64745814  0.64190735  0.75547651     0.08800
H1695       H  0.69819782  0.70097411  0.69298534     0.06300
H1696       H  0.70892035  0.69772274  0.80710748     0.06200
C1697       C  0.66934710  0.65687920  0.82035737    -0.05200
C1698       C  0.69093827  0.64938631  0.84617707    -0.05100
C1699       C  0.68352862  0.63971612  0.88010271    -0.23300
C1700       C  0.65438205  0.63749177  0.88883573     0.19000
C1701       C  0.63248881  0.64479481  0.86296561     0.16200
C1702       C  0.64010724  0.65432364  0.82887707    -0.18300
C1703       C  0.60334213  0.64257153  0.87168806    -0.20100
C1704       C  0.59592764  0.63289002  0.90560006    -0.12700
C1705       C  0.61751279  0.62537942  0.93141603     0.04000
C1706       C  0.64675727  0.62794897  0.92292165    -0.24800
H1707       H  0.71361184  0.65099250  0.84003946     0.09100
H1708       H  0.70058353  0.63410261  0.89953420     0.12700
H1709       H  0.62333803  0.66037885  0.80923392     0.12600
H1710       H  0.58628924  0.64818231  0.85225213     0.12400
H1711       H  0.57325240  0.63125713  0.91172177     0.12900
H1712       H  0.66351753  0.62187268  0.94256705     0.14900
C1713       C  0.65631956  0.65958749  0.68740330    -0.05200
C1714       C  0.62631669  0.65433621  0.68636872    -0.05100
C1715       C  0.61240073  0.64377278  0.65577606    -0.23300
C1716       C  0.62821432  0.63821055  0.62557953     0.19000
C1717       C  0.65835809  0.64349786  0.62622333     0.16200
C1718       C  0.67219216  0.65416036  0.65704923    -0.18300
C1719       C  0.67418430  0.63793321  0.59604611    -0.20100
C1720       C  0.66028089  0.62739496  0.56544571    -0.12700
C1721       C  0.63027526  0.62217388  0.56437336     0.04000
C1722       C  0.61438392  0.62755944  0.59473019    -0.24800
H1723       H  0.61351561  0.65867067  0.70920097     0.09100
H1724       H  0.58926366  0.63996864  0.65574260     0.12700
H1725       H  0.69537897  0.65776184  0.65761500     0.12600
H1726       H  0.69732298  0.64173148  0.59609338     0.12400
H1727       H  0.67309233  0.62307732  0.54261630     0.12900
H1728       H  0.59119815  0.62394953  0.59413612     0.14900
C1729       C  0.63221050  0.90955444  0.56229157    -0.05200
C1730       C  0.66222439  0.90453039  0.56404985    -0.05100
C1731       C  0.67588216  0.89410643  0.59550471    -0.23300
C1732       C  0.65977647  0.88850173  0.62580979     0.19000
C1733       C  0.62959061  0.89339642  0.62437133     0.16200
C1734       C  0.61601499  0.90380480  0.59266471    -0.18300
C1735       C  0.61348926  0.88780759  0.65468792    -0.20100
C1736       C  0.62716233  0.87744643  0.68616772    -0.12700
C1737       C  0.65717525  0.87243119  0.68791572     0.04000
C1738       C  0.67335687  0.87811239  0.65751983    -0.24800
H1739       H  0.67524302  0.90909816  0.54119864     0.09100
H1740       H  0.69905897  0.89053817  0.59616165     0.12700
H1741       H  0.59279725  0.90717688  0.59154272     0.12600
H1742       H  0.59031216  0.89137407  0.65403358     0.12400
H1743       H  0.61416423  0.87292350  0.70904979     0.12900
H1744       H  0.69657259  0.87472029  0.65864110     0.14900
C1745       C  0.61956738  0.90995091  0.92896769    -0.05200
C1746       C  0.59784118  0.90437465  0.90290089    -0.05100
C1747       C  0.60486682  0.89371316  0.86985061    -0.23300
C1748       C  0.63379327  0.88839305  0.86212262     0.19000
C1749       C  0.65585048  0.89380295  0.88808056     0.16200
C1750       C  0.64862629  0.90451501  0.92127898    -0.18300
C1751       C  0.68477671  0.88845690  0.88034934    -0.20100
C1752       C  0.69179253  0.87779504  0.84728630    -0.12700
C1753       C  0.67005584  0.87226449  0.82121502     0.04000
C1754       C  0.64100797  0.87770179  0.82891887    -0.24800
H1755       H  0.57527426  0.90792750  0.90824413     0.09100
H1756       H  0.58764596  0.88957974  0.85035197     0.12700
H1757       H  0.66564476  0.90898165  0.94093515     0.12600
H1758       H  0.70200025  0.89256781  0.89985223     0.12400
H1759       H  0.71435128  0.87419984  0.84193520     0.12900
H1760       H  0.62398416  0.87324342  0.80926500     0.14900
C1761       C  0.90881776  0.61305320  0.57066043    -0.05200
C1762       C  0.90342338  0.59190049  0.59704295    -0.05100
C1763       C  0.89436157  0.59976799  0.63043912    -0.23300
C1764       C  0.89067660  0.62895345  0.63805470     0.19000
C1765       C  0.89583043  0.65039408  0.61156457     0.16200
C1766       C  0.90472160  0.64229745  0.57798555    -0.18300
C1767       C  0.89216315  0.67957960  0.61918740    -0.20100
C1768       C  0.88314755  0.68745003  0.65260287    -0.12700
C1769       C  0.87775242  0.66629870  0.67899127     0.04000
C1770       C  0.88180153  0.63705083  0.67164048    -0.24800
H1771       H  0.90622792  0.56921188  0.59175173     0.09100
H1772       H  0.89038062  0.58305005  0.65034081     0.12700
H1773       H  0.90911832  0.65872583  0.55784626     0.12600
H1774       H  0.89615012  0.69629748  0.59928791     0.12400
H1775       H  0.88039481  0.71014305  0.65790667     0.12900
H1776       H  0.87740758  0.62061958  0.69177658     0.14900
C1777       C  0.90441135  0.61896155  0.93717422    -0.05200
C1778       C  0.87412740  0.62155280  0.93339395    -0.05100
C1779       C  0.86110539  0.63236259  0.90171442    -0.23300
C1780       C  0.87809753  0.64083271  0.87311987     0.19000
C1781       C  0.90854268  0.63825142  0.87649780     0.16200
C1782       C  0.92148659  0.62733988  0.90842181    -0.18300
C1783       C  0.92553693  0.64670059  0.84789747    -0.20100
C1784       C  0.91252133  0.65752343  0.81622457    -0.12700
C1785       C  0.88224428  0.66016684  0.81246756     0.04000
C1786       C  0.86515922  0.65178257  0.84120918    -0.24800
H1787       H  0.86042659  0.61487231  0.95487522     0.09100
H1788       H  0.83772883  0.63406109  0.89957630     0.12700
H1789       H  0.94486019  0.62575212  0.91105806     0.12600
H1790       H  0.94891241  0.64498716  0.85003189     0.12400
H1791       H  0.92622182  0.66419718  0.79473943     0.12900
H1792       H  0.84178805  0.65341709  0.83857852     0.14900
C1793       C  0.87996326  0.86325802  0.81839719    -0.05200
C1794       C  0.88691490  0.84196862  0.84457941    -0.05100
C1795       C  0.89606281  0.84971912  0.87877583    -0.23300
C1796       C  0.89828603  0.87890547  0.88739601     0.19000
C1797       C  0.89158861  0.90049239  0.86113550     0.16200
C1798       C  0.88259157  0.89252957  0.82678430    -0.18300
C1799       C  0.89381981  0.92967910  0.86975326    -0.20100
C1800       C  0.90292743  0.93742788  0.90396506    -0.12700
C1801       C  0.90982087  0.91613680  0.93016752     0.04000
C1802       C  0.90723578  0.88686672  0.92176422    -0.24800
H1803       H  0.88517814  0.81927320  0.83854640     0.09100
H1804       H  0.90122785  0.83290124  0.89851366     0.12700
H1805       H  0.87689222  0.90905929  0.80685189     0.12600
H1806       H  0.88866401  0.94649762  0.85001266     0.12400
H1807       H  0.90463307  0.96012318  0.91000961     0.12900
H1808       H  0.91288799  0.87033781  0.94171742     0.14900
C1809       C  0.87634433  0.87593197  0.68560559    -0.05200
C1810       C  0.88257855  0.90569534  0.68582524    -0.05100
C1811       C  0.89306829  0.91992747  0.65572783    -0.23300
C1812       C  0.89751081  0.90473475  0.62465139     0.19000
C1813       C  0.89112716  0.87487650  0.62392788     0.16200
C1814       C  0.88056167  0.86068137  0.65432009    -0.18300
C1815       C  0.89557695  0.85968381  0.59285495    -0.20100
C1816       C  0.90613310  0.87389972  0.56278380    -0.12700
C1817       C  0.91241110  0.90365502  0.56301297     0.04000
C1818       C  0.90811381  0.91892015  0.59427477    -0.24800
H1819       H  0.87910050  0.91811539  0.70930643     0.09100
H1820       H  0.89768998  0.94284195  0.65677467     0.12700
H1821       H  0.87615816  0.83769761  0.65382196     0.12600
H1822       H  0.89095317  0.83676996  0.59180841     0.12400
H1823       H  0.90966980  0.86145666  0.53933834     0.12900
H1824       H  0.91252892  0.94190015  0.59479081     0.14900
loop_ 
_geom_bond_atom_site_label_1 
_geom_bond_atom_site_label_2 
_geom_bond_distance 
_geom_bond_site_symmetry_2 
_ccdc_geom_bond_type 
C1            C2   1.407       .  A
C1            C6   1.412       .  A
C1          C213   1.490       .  S
C2            C3   1.401       .  A
C2            H7   1.083       .  S
C3            C4   1.397       .  A
C3          C197   1.479       .  S
C4            C5   1.402       .  A
C4            H8   1.084       .  S
C5            C6   1.409       .  A
C5           C79   1.482       .  S
C6            H9   1.083       .  S
C10          C11   1.397       .  A
C10          C15   1.401       .  A
C10         C205   1.479       .  S
C11         C240   1.402       .  A
C11          H16   1.084       .  S
C12          C13   1.409       .  A
C12         C239   1.402   1_554  A
C12         C294   1.481       .  S
C13          C14   1.411       .  A
C13          H17   1.083       .  S
C14         C243   1.407   1_554  A
C14         C221   1.490       .  S
C15         C242   1.407       .  A
C15         H246   1.083       .  S
H18         C243   1.083       .  S
C19          C20   1.400       .  A
C19          C24   1.404       .  A
C19         C173   1.478       .  S
C20          C21   1.401       .  A
C20          H25   1.084       .  S
C21          C22   1.409       .  A
C21          C81   1.481       .  S
C22          C23   1.408       .  A
C22          H26   1.083       .  S
C23          C24   1.406       .  A
C23         C189   1.489       .  S
C24          H27   1.083       .  S
C28          C29   1.406       .  A
C28          C33   1.408       .  A
C28         C181   1.489       .  S
C29         C258   1.404       .  A
C29         H262   1.083       .  S
C30          C31   1.400       .  A
C30         C257   1.404       .  A
C30         C165   1.478       .  S
C31          C32   1.401       .  A
C31          H35   1.084       .  S
C32         C261   1.409   1_554  A
C32          C68   1.481       .  S
C33         C260   1.409       .  A
C33          H36   1.083       .  S
H34         C257   1.083       .  S
C37          C38   1.406       .  A
C37          C42   1.407       .  A
C37         C141   1.486       .  S
C38          C39   1.403       .  A
C38          H43   1.083       .  S
C39          C40   1.407       .  A
C39          C82   1.484       .  S
C40          C41   1.406       .  A
C40          H44   1.083       .  S
C41          C42   1.406       .  A
C41         C157   1.490       .  S
C42          H45   1.083       .  S
C46          C47   1.406       .  A
C46          C51   1.406       .  A
C46         C149   1.490       .  S
C47         C276   1.407       .  A
C47          H52   1.083       .  S
C48          C49   1.403   1_556  A
C48         C275   1.407       .  A
C48          C67   1.484   1_556  S
C49          C50   1.406       .  A
C49          H53   1.083       .  S
C50         C279   1.407   1_554  A
C50         C133   1.486       .  S
C51         C278   1.407       .  A
C51         H282   1.083       .  S
H54         C279   1.083       .  S
O55         Cu63   2.017       .  S
O55          C65   1.278       .  A
O56       Cu1431   2.018       .  S
O56         C294   1.278       .  A
O57        Cu519   2.021       .  S
O57          C67   1.281       .  A
O58        Cu975   2.016       .  S
O58          C68   1.281       .  A
O59        Cu976   1.998       .  S
O59         C296   1.275       .  A
O60        Cu520   2.000       .  S
O60         C295   1.276       .  A
O61       Cu1432   1.994       .  S
O61          C66   1.278       .  A
O62         Cu64   1.996       .  S
O62         C293   1.278       .  A
Cu63       O1424   2.018   1_445  S
Cu63        O513   2.021   1_545  S
Cu63        O970   2.016   1_455  S
Cu63       Cu292   2.370   1_554  S
Cu64        O971   1.998   1_455  S
Cu64        O516   2.000   1_545  S
Cu64       O1429   1.994   1_445  S
Cu64       Cu291   2.370       .  S
C65          C87   1.481       .  S
C65         O290   1.278   1_554  A
C66         C240   1.481       .  S
C66         O284   1.278       .  A
C67         O288   1.276   1_554  A
C68         O287   1.275   1_554  A
O69         Cu77   1.994       .  S
O69          C79   1.278       .  A
O70         Cu77   1.996       .  S
O70          C80   1.278       .  A
O71         Cu77   1.998       .  S
O71          C81   1.276       .  A
O72         Cu77   2.000       .  S
O72          C82   1.277       .  A
O73         Cu78   2.020       .  S
O73          C82   1.280       .  A
O74         Cu78   2.015       .  S
O74          C81   1.281       .  A
O75         Cu78   2.018       .  S
O75          C80   1.278       .  A
O76         Cu78   2.019       .  S
O76          C79   1.278       .  A
Cu77        Cu78   2.370       .  S
C80          C96   1.481       .  S
C83          C84   1.407   1_554  A
C83          C88   1.409       .  A
C83         C125   1.487       .  S
C84         C313   1.402       .  A
C84          H89   1.083       .  S
C85          C86   1.399       .  A
C85         C312   1.402       .  A
C85         C109   1.480       .  S
C86         C315   1.403       .  A
C86          H90   1.084       .  S
C87          C88   1.407       .  A
C87         C314   1.403   1_554  A
C88          H91   1.083       .  S
C92          C93   1.403       .  A
C92          C97   1.399       .  A
C92         C101   1.480       .  S
C93          C94   1.407       .  A
C93          H98   1.083       .  S
C94          C95   1.409       .  A
C94         C117   1.487       .  S
C95          C96   1.407       .  A
C95          H99   1.083       .  S
C96          C97   1.403       .  A
C97         H100   1.084       .  S
C101        C102   1.406       .  A
C101        C106   1.404       .  A
C102        C103   1.396       .  A
C102        H111   1.083       .  S
C103        C104   1.401       .  A
C103        H112   1.084       .  S
C104        C110   1.402       .  A
C104        C105   1.415       .  A
C105        C107   1.401       .  A
C105        C106   1.402       .  A
C106        H113   1.084       .  S
C107        C108   1.396       .  A
C107        H114   1.084       .  S
C108        C109   1.406       .  A
C108        H115   1.083       .  S
C109        C110   1.404       .  A
C110        H116   1.084       .  S
C117        C118   1.407       .  A
C117        C122   1.407       .  A
C118        C119   1.397       .  A
C118        H127   1.083       .  S
C119        C120   1.402       .  A
C119        H128   1.084       .  S
C120        C126   1.405       .  A
C120        C121   1.414       .  A
C121        C123   1.401       .  A
C121        C122   1.405       .  A
C122        H129   1.084       .  S
C123        C124   1.397       .  A
C123        H130   1.084       .  S
C124        C125   1.407       .  A
C124        H131   1.083       .  S
C125        C126   1.407       .  A
C126        H132   1.084       .  S
C133        C134   1.406       .  A
C133        C138   1.407       .  A
C134        C135   1.397       .  A
C134        H143   1.083       .  S
C135        C136   1.402       .  A
C135        H144   1.084       .  S
C136        C142   1.403       .  A
C136        C137   1.413       .  A
C137        C139   1.402       .  A
C137        C138   1.403       .  A
C138        H145   1.084       .  S
C139        C140   1.397       .  A
C139        H146   1.084       .  S
C140        C141   1.406       .  A
C140        H147   1.083       .  S
C141        C142   1.407       .  A
C142        H148   1.084       .  S
C149        C150   1.407       .  A
C149        C154   1.408       .  A
C150        C151   1.398       .  A
C150        H159   1.083       .  S
C151        C152   1.402       .  A
C151        H160   1.084       .  S
C152        C158   1.406       .  A
C152        C153   1.413       .  A
C153        C155   1.402       .  A
C153        C154   1.406       .  A
C154        H161   1.084       .  S
C155        C156   1.398       .  A
C155        H162   1.084       .  S
C156        C157   1.407       .  A
C156        H163   1.083       .  S
C157        C158   1.408       .  A
C158        H164   1.084       .  S
C165        C166   1.405       .  A
C165        C170   1.403       .  A
C166        C167   1.395       .  A
C166        H175   1.083       .  S
C167        C168   1.401       .  A
C167        H176   1.084       .  S
C168        C174   1.402       .  A
C168        C169   1.415       .  A
C169        C171   1.400       .  A
C169        C170   1.402       .  A
C170        H177   1.084       .  S
C171        C172   1.395       .  A
C171        H178   1.084       .  S
C172        C173   1.406       .  A
C172        H179   1.083       .  S
C173        C174   1.403       .  A
C174        H180   1.084       .  S
C181        C182   1.407       .  A
C181        C186   1.408       .  A
C182        C183   1.398       .  A
C182        H191   1.083       .  S
C183        C184   1.402       .  A
C183        H192   1.084       .  S
C184        C190   1.406       .  A
C184        C185   1.414       .  A
C185        C187   1.402       .  A
C185        C186   1.406       .  A
C186        H193   1.084       .  S
C187        C188   1.398       .  A
C187        H194   1.084       .  S
C188        C189   1.407       .  A
C188        H195   1.083       .  S
C189        C190   1.408       .  A
C190        H196   1.084       .  S
C197        C198   1.406       .  A
C197        C202   1.404       .  A
C198        C199   1.395       .  A
C198        H207   1.083       .  S
C199        C200   1.401       .  A
C199        H208   1.084       .  S
C200        C206   1.402       .  A
C200        C201   1.415       .  A
C201        C203   1.401       .  A
C201        C202   1.402       .  A
C202        H209   1.084       .  S
C203        C204   1.395       .  A
C203        H210   1.084       .  S
C204        C205   1.406       .  A
C204        H211   1.083       .  S
C205        C206   1.404       .  A
C206        H212   1.084       .  S
C213        C214   1.408       .  A
C213        C218   1.407       .  A
C214        C215   1.397       .  A
C214        H223   1.083       .  S
C215        C216   1.401       .  A
C215        H224   1.084       .  S
C216        C222   1.407       .  A
C216        C217   1.414       .  A
C217        C219   1.401       .  A
C217        C218   1.407       .  A
C218        H225   1.084       .  S
C219        C220   1.397       .  A
C219        H226   1.084       .  S
C220        C221   1.408       .  A
C220        H227   1.083       .  S
C221        C222   1.407       .  A
C222        H228   1.084       .  S
C229        C230   1.407       .  A
C229        C234   1.412       .  A
C229        C441   1.490       .  S
C230        C231   1.401       .  A
C230        H235   1.083       .  S
C231        C232   1.397       .  A
C231        C425   1.479       .  S
C232        C233   1.402       .  A
C232        H236   1.084       .  S
C233        C234   1.409       .  A
C233        C307   1.482       .  S
C234        H237   1.083       .  S
C238        C239   1.397       .  A
C238        C243   1.401       .  A
C238        C433   1.479       .  S
C239        H244   1.084       .  S
C240        C241   1.409       .  A
C241        C242   1.411       .  A
C241        H245   1.083       .  S
C242        C449   1.490       .  S
C247        C248   1.400       .  A
C247        C252   1.404       .  A
C247        C401   1.478       .  S
C248        C249   1.401       .  A
C248        H253   1.084       .  S
C249        C250   1.409       .  A
C249        C309   1.481       .  S
C250        C251   1.408       .  A
C250        H254   1.083       .  S
C251        C252   1.406       .  A
C251        C417   1.489       .  S
C252        H255   1.083       .  S
C256        C257   1.406   1_556  A
C256        C261   1.408       .  A
C256        C409   1.489       .  S
C258        C259   1.400       .  A
C258        C393   1.478       .  S
C259        C260   1.401       .  A
C259        H263   1.084       .  S
C260        C296   1.481       .  S
C261        H264   1.083       .  S
C265        C266   1.406       .  A
C265        C270   1.407       .  A
C265        C369   1.486       .  S
C266        C267   1.403       .  A
C266        H271   1.083       .  S
C267        C268   1.407       .  A
C267        C310   1.484       .  S
C268        C269   1.406       .  A
C268        H272   1.083       .  S
C269        C270   1.406       .  A
C269        C385   1.490       .  S
C270        H273   1.083       .  S
C274        C275   1.406       .  A
C274        C279   1.406       .  A
C274        C377   1.490       .  S
C275        H280   1.083       .  S
C276        C277   1.403       .  A
C276        C295   1.484       .  S
C277        C278   1.406       .  A
C277        H281   1.083       .  S
C278        C361   1.486       .  S
O283       Cu291   2.017       .  S
O283        C293   1.278       .  A
O284      Cu1659   2.018       .  S
O285       Cu747   2.022       .  S
O285        C295   1.281       .  A
O286      Cu1203   2.016       .  S
O286        C296   1.281       .  A
O287      Cu1204   1.998       .  S
O288       Cu748   2.000       .  S
O289      Cu1660   1.994       .  S
O289        C294   1.278   1_556  A
O290       Cu292   1.996       .  S
Cu291      O1652   2.018   1_445  S
Cu291       O741   2.022   1_545  S
Cu291      O1198   2.016   1_455  S
Cu292      O1199   1.998   1_455  S
Cu292       O744   2.000   1_545  S
Cu292      O1657   1.994   1_445  S
C293        C315   1.481       .  S
O297       Cu305   1.994       .  S
O297        C307   1.278       .  A
O298       Cu305   1.996       .  S
O298        C308   1.278       .  A
O299       Cu305   1.998       .  S
O299        C309   1.276       .  A
O300       Cu305   2.000       .  S
O300        C310   1.277       .  A
O301       Cu306   2.020       .  S
O301        C310   1.280       .  A
O302       Cu306   2.015       .  S
O302        C309   1.281       .  A
O303       Cu306   2.018       .  S
O303        C308   1.278       .  A
O304       Cu306   2.019       .  S
O304        C307   1.278       .  A
Cu305      Cu306   2.370       .  S
C308        C324   1.481       .  S
C311        C312   1.407       .  A
C311        C316   1.409       .  A
C311        C353   1.487       .  S
C312        H317   1.083       .  S
C313        C314   1.399       .  A
C313        C337   1.480       .  S
C314        H318   1.084       .  S
C315        C316   1.407       .  A
C316        H319   1.083       .  S
C320        C321   1.403       .  A
C320        C325   1.399       .  A
C320        C329   1.480       .  S
C321        C322   1.407       .  A
C321        H326   1.083       .  S
C322        C323   1.409       .  A
C322        C345   1.487       .  S
C323        C324   1.407       .  A
C323        H327   1.083       .  S
C324        C325   1.403       .  A
C325        H328   1.083       .  S
C329        C330   1.406       .  A
C329        C334   1.404       .  A
C330        C331   1.396       .  A
C330        H339   1.083       .  S
C331        C332   1.401       .  A
C331        H340   1.084       .  S
C332        C338   1.402       .  A
C332        C333   1.415       .  A
C333        C335   1.401       .  A
C333        C334   1.402       .  A
C334        H341   1.084       .  S
C335        C336   1.396       .  A
C335        H342   1.084       .  S
C336        C337   1.406       .  A
C336        H343   1.083       .  S
C337        C338   1.404       .  A
C338        H344   1.084       .  S
C345        C346   1.407       .  A
C345        C350   1.407       .  A
C346        C347   1.397       .  A
C346        H355   1.083       .  S
C347        C348   1.402       .  A
C347        H356   1.084       .  S
C348        C354   1.405       .  A
C348        C349   1.414       .  A
C349        C351   1.401       .  A
C349        C350   1.405       .  A
C350        H357   1.084       .  S
C351        C352   1.397       .  A
C351        H358   1.084       .  S
C352        C353   1.407       .  A
C352        H359   1.083       .  S
C353        C354   1.407       .  A
C354        H360   1.084       .  S
C361        C362   1.406       .  A
C361        C366   1.407       .  A
C362        C363   1.397       .  A
C362        H371   1.083       .  S
C363        C364   1.402       .  A
C363        H372   1.084       .  S
C364        C370   1.403       .  A
C364        C365   1.413       .  A
C365        C367   1.402       .  A
C365        C366   1.403       .  A
C366        H373   1.084       .  S
C367        C368   1.397       .  A
C367        H374   1.084       .  S
C368        C369   1.406       .  A
C368        H375   1.083       .  S
C369        C370   1.407       .  A
C370        H376   1.084       .  S
C377        C378   1.407       .  A
C377        C382   1.408       .  A
C378        C379   1.398       .  A
C378        H387   1.083       .  S
C379        C380   1.402       .  A
C379        H388   1.084       .  S
C380        C386   1.406       .  A
C380        C381   1.413       .  A
C381        C383   1.402       .  A
C381        C382   1.406       .  A
C382        H389   1.084       .  S
C383        C384   1.398       .  A
C383        H390   1.084       .  S
C384        C385   1.407       .  A
C384        H391   1.083       .  S
C385        C386   1.408       .  A
C386        H392   1.084       .  S
C393        C394   1.405       .  A
C393        C398   1.403       .  A
C394        C395   1.395       .  A
C394        H403   1.083       .  S
C395        C396   1.401       .  A
C395        H404   1.084       .  S
C396        C402   1.402       .  A
C396        C397   1.415       .  A
C397        C399   1.400       .  A
C397        C398   1.402       .  A
C398        H405   1.084       .  S
C399        C400   1.395       .  A
C399        H406   1.084       .  S
C400        C401   1.406       .  A
C400        H407   1.083       .  S
C401        C402   1.403       .  A
C402        H408   1.084       .  S
C409        C410   1.407       .  A
C409        C414   1.408       .  A
C410        C411   1.398       .  A
C410        H419   1.083       .  S
C411        C412   1.402       .  A
C411        H420   1.084       .  S
C412        C418   1.406       .  A
C412        C413   1.414       .  A
C413        C415   1.402       .  A
C413        C414   1.406       .  A
C414        H421   1.084       .  S
C415        C416   1.398       .  A
C415        H422   1.084       .  S
C416        C417   1.407       .  A
C416        H423   1.083       .  S
C417        C418   1.408       .  A
C418        H424   1.084       .  S
C425        C426   1.406       .  A
C425        C430   1.404       .  A
C426        C427   1.395       .  A
C426        H435   1.083       .  S
C427        C428   1.401       .  A
C427        H436   1.084       .  S
C428        C434   1.402       .  A
C428        C429   1.415       .  A
C429        C431   1.401       .  A
C429        C430   1.402       .  A
C430        H437   1.084       .  S
C431        C432   1.395       .  A
C431        H438   1.084       .  S
C432        C433   1.406       .  A
C432        H439   1.083       .  S
C433        C434   1.404       .  A
C434        H440   1.084       .  S
C441        C442   1.408       .  A
C441        C446   1.407       .  A
C442        C443   1.397       .  A
C442        H451   1.083       .  S
C443        C444   1.401       .  A
C443        H452   1.084       .  S
C444        C450   1.407       .  A
C444        C445   1.414       .  A
C445        C447   1.401       .  A
C445        C446   1.407       .  A
C446        H453   1.084       .  S
C447        C448   1.397       .  A
C447        H454   1.084       .  S
C448        C449   1.408       .  A
C448        H455   1.083       .  S
C449        C450   1.407       .  A
C450        H456   1.084       .  S
C457        C458   1.407       .  A
C457        C462   1.412       .  A
C457        C669   1.490       .  S
C458        C459   1.401       .  A
C458        H463   1.083       .  S
C459        C460   1.397       .  A
C459        C653   1.479       .  S
C460        C461   1.402       .  A
C460        H464   1.084       .  S
C461        C462   1.409       .  A
C461        C535   1.482       .  S
C462        H465   1.083       .  S
C466        C467   1.397       .  A
C466        C471   1.401       .  A
C466        C661   1.479       .  S
C467        C696   1.402       .  A
C467        H472   1.084       .  S
C468        C695   1.402   1_554  A
C468        C469   1.409       .  A
C468        C750   1.481       .  S
C469        C470   1.411       .  A
C469        H473   1.083       .  S
C470        C699   1.407   1_554  A
C470        C677   1.490       .  S
C471        C698   1.407       .  A
C471        H702   1.083       .  S
H474        C699   1.083       .  S
C475        C476   1.400       .  A
C475        C480   1.404       .  A
C475        C629   1.478       .  S
C476        C477   1.401       .  A
C476        H481   1.084       .  S
C477        C478   1.409       .  A
C477        C537   1.481       .  S
C478        C479   1.408       .  A
C478        H482   1.083       .  S
C479        C480   1.406       .  A
C479        C645   1.489       .  S
C480        H483   1.083       .  S
C484        C485   1.406       .  A
C484        C489   1.408       .  A
C484        C637   1.489       .  S
C485        C714   1.404       .  A
C485        H718   1.083       .  S
C486        C713   1.404       .  A
C486        C487   1.400       .  A
C486        C621   1.478       .  S
C487        C488   1.401       .  A
C487        H491   1.084       .  S
C488        C717   1.409   1_554  A
C488        C524   1.481       .  S
C489        C716   1.409       .  A
C489        H492   1.083       .  S
H490        C713   1.083       .  S
C493        C494   1.406       .  A
C493        C498   1.407       .  A
C493        C597   1.486       .  S
C494        C495   1.403       .  A
C494        H499   1.083       .  S
C495        C496   1.407       .  A
C495        C538   1.484       .  S
C496        C497   1.406       .  A
C496        H500   1.083       .  S
C497        C498   1.406       .  A
C497        C613   1.490       .  S
C498        H501   1.083       .  S
C502        C503   1.406       .  A
C502        C507   1.406       .  A
C502        C605   1.490       .  S
C503        C732   1.407       .  A
C503        H508   1.083       .  S
C504        C731   1.407       .  A
C504        C505   1.403   1_556  A
C504        C523   1.484   1_556  S
C505        C506   1.406       .  A
C505        H509   1.083       .  S
C506        C735   1.407   1_554  A
C506        C589   1.486       .  S
C507        C734   1.407       .  A
C507        H738   1.083       .  S
H510        C735   1.083       .  S
O511       Cu519   2.017       .  S
O511        C521   1.278       .  A
O512       Cu975   2.018   1_565  S
O512        C750   1.278       .  A
O513        C523   1.281       .  A
O514      Cu1431   2.016       .  S
O514        C524   1.281       .  A
O515      Cu1432   1.998       .  S
O515        C752   1.275       .  A
O516        C751   1.276       .  A
O517       Cu976   1.994   1_565  S
O517        C522   1.278       .  A
O518       Cu520   1.996       .  S
O518        C749   1.278       .  A
Cu519       O968   2.018   1_455  S
Cu519      O1426   2.016   1_455  S
Cu519      Cu748   2.370   1_554  S
Cu520      O1427   1.998   1_455  S
Cu520       O973   1.994   1_455  S
Cu520      Cu747   2.370       .  S
C521        C543   1.481       .  S
C521        O746   1.278   1_554  A
C522        C696   1.481       .  S
C522        O740   1.278       .  A
C523        O744   1.276   1_554  A
C524        O743   1.275   1_554  A
O525       Cu533   1.994       .  S
O525        C535   1.278       .  A
O526       Cu533   1.996       .  S
O526        C536   1.278       .  A
O527       Cu533   1.998       .  S
O527        C537   1.276       .  A
O528       Cu533   2.000       .  S
O528        C538   1.277       .  A
O529       Cu534   2.020       .  S
O529        C538   1.280       .  A
O530       Cu534   2.015       .  S
O530        C537   1.281       .  A
O531       Cu534   2.018       .  S
O531        C536   1.278       .  A
O532       Cu534   2.019       .  S
O532        C535   1.278       .  A
Cu533      Cu534   2.370       .  S
C536        C552   1.481       .  S
C539        C540   1.407   1_554  A
C539        C544   1.409       .  A
C539        C581   1.487       .  S
C540        C769   1.402       .  A
C540        H545   1.083       .  S
C541        C768   1.402       .  A
C541        C542   1.399       .  A
C541        C565   1.480       .  S
C542        C771   1.403       .  A
C542        H546   1.084       .  S
C543        C770   1.403   1_554  A
C543        C544   1.407       .  A
C544        H547   1.083       .  S
C548        C549   1.403       .  A
C548        C553   1.399       .  A
C548        C557   1.480       .  S
C549        C550   1.407       .  A
C549        H554   1.083       .  S
C550        C551   1.409       .  A
C550        C573   1.487       .  S
C551        C552   1.407       .  A
C551        H555   1.083       .  S
C552        C553   1.403       .  A
C553        H556   1.083       .  S
C557        C558   1.406       .  A
C557        C562   1.404       .  A
C558        C559   1.396       .  A
C558        H567   1.083       .  S
C559        C560   1.401       .  A
C559        H568   1.084       .  S
C560        C566   1.402       .  A
C560        C561   1.415       .  A
C561        C563   1.401       .  A
C561        C562   1.402       .  A
C562        H569   1.084       .  S
C563        C564   1.396       .  A
C563        H570   1.084       .  S
C564        C565   1.406       .  A
C564        H571   1.083       .  S
C565        C566   1.404       .  A
C566        H572   1.084       .  S
C573        C574   1.407       .  A
C573        C578   1.407       .  A
C574        C575   1.397       .  A
C574        H583   1.083       .  S
C575        C576   1.402       .  A
C575        H584   1.084       .  S
C576        C582   1.405       .  A
C576        C577   1.414       .  A
C577        C579   1.401       .  A
C577        C578   1.405       .  A
C578        H585   1.084       .  S
C579        C580   1.397       .  A
C579        H586   1.084       .  S
C580        C581   1.407       .  A
C580        H587   1.083       .  S
C581        C582   1.407       .  A
C582        H588   1.084       .  S
C589        C590   1.406       .  A
C589        C594   1.407       .  A
C590        C591   1.397       .  A
C590        H599   1.083       .  S
C591        C592   1.402       .  A
C591        H600   1.084       .  S
C592        C598   1.403       .  A
C592        C593   1.413       .  A
C593        C595   1.402       .  A
C593        C594   1.403       .  A
C594        H601   1.084       .  S
C595        C596   1.397       .  A
C595        H602   1.084       .  S
C596        C597   1.406       .  A
C596        H603   1.083       .  S
C597        C598   1.407       .  A
C598        H604   1.084       .  S
C605        C606   1.407       .  A
C605        C610   1.408       .  A
C606        C607   1.398       .  A
C606        H615   1.083       .  S
C607        C608   1.402       .  A
C607        H616   1.084       .  S
C608        C614   1.406       .  A
C608        C609   1.413       .  A
C609        C611   1.402       .  A
C609        C610   1.406       .  A
C610        H617   1.084       .  S
C611        C612   1.398       .  A
C611        H618   1.084       .  S
C612        C613   1.407       .  A
C612        H619   1.083       .  S
C613        C614   1.408       .  A
C614        H620   1.084       .  S
C621        C622   1.405       .  A
C621        C626   1.403       .  A
C622        C623   1.395       .  A
C622        H631   1.083       .  S
C623        C624   1.401       .  A
C623        H632   1.084       .  S
C624        C630   1.402       .  A
C624        C625   1.415       .  A
C625        C627   1.400       .  A
C625        C626   1.402       .  A
C626        H633   1.084       .  S
C627        C628   1.395       .  A
C627        H634   1.084       .  S
C628        C629   1.406       .  A
C628        H635   1.083       .  S
C629        C630   1.403       .  A
C630        H636   1.084       .  S
C637        C638   1.407       .  A
C637        C642   1.408       .  A
C638        C639   1.398       .  A
C638        H647   1.083       .  S
C639        C640   1.402       .  A
C639        H648   1.084       .  S
C640        C646   1.406       .  A
C640        C641   1.414       .  A
C641        C643   1.402       .  A
C641        C642   1.406       .  A
C642        H649   1.084       .  S
C643        C644   1.398       .  A
C643        H650   1.084       .  S
C644        C645   1.407       .  A
C644        H651   1.083       .  S
C645        C646   1.408       .  A
C646        H652   1.084       .  S
C653        C654   1.406       .  A
C653        C658   1.404       .  A
C654        C655   1.395       .  A
C654        H663   1.083       .  S
C655        C656   1.401       .  A
C655        H664   1.084       .  S
C656        C662   1.402       .  A
C656        C657   1.415       .  A
C657        C659   1.401       .  A
C657        C658   1.402       .  A
C658        H665   1.084       .  S
C659        C660   1.395       .  A
C659        H666   1.084       .  S
C660        C661   1.406       .  A
C660        H667   1.083       .  S
C661        C662   1.404       .  A
C662        H668   1.084       .  S
C669        C670   1.408       .  A
C669        C674   1.407       .  A
C670        C671   1.397       .  A
C670        H679   1.083       .  S
C671        C672   1.401       .  A
C671        H680   1.084       .  S
C672        C678   1.407       .  A
C672        C673   1.414       .  A
C673        C675   1.401       .  A
C673        C674   1.407       .  A
C674        H681   1.084       .  S
C675        C676   1.397       .  A
C675        H682   1.084       .  S
C676        C677   1.408       .  A
C676        H683   1.083       .  S
C677        C678   1.407       .  A
C678        H684   1.084       .  S
C685        C686   1.407       .  A
C685        C690   1.412       .  A
C685        C897   1.490       .  S
C686        C687   1.401       .  A
C686        H691   1.083       .  S
C687        C688   1.397       .  A
C687        C881   1.479       .  S
C688        C689   1.402       .  A
C688        H692   1.084       .  S
C689        C690   1.409       .  A
C689        C763   1.482       .  S
C690        H693   1.083       .  S
C694        C695   1.397       .  A
C694        C699   1.401       .  A
C694        C889   1.479       .  S
C695        H700   1.084       .  S
C696        C697   1.409       .  A
C697        C698   1.411       .  A
C697        H701   1.083       .  S
C698        C905   1.490       .  S
C703        C704   1.400       .  A
C703        C708   1.404       .  A
C703        C857   1.478       .  S
C704        C705   1.401       .  A
C704        H709   1.084       .  S
C705        C706   1.409       .  A
C705        C765   1.481       .  S
C706        C707   1.408       .  A
C706        H710   1.083       .  S
C707        C708   1.406       .  A
C707        C873   1.489       .  S
C708        H711   1.083       .  S
C712        C713   1.406   1_556  A
C712        C717   1.408       .  A
C712        C865   1.489       .  S
C714        C715   1.400       .  A
C714        C849   1.478       .  S
C715        C716   1.401       .  A
C715        H719   1.084       .  S
C716        C752   1.481       .  S
C717        H720   1.083       .  S
C721        C722   1.406       .  A
C721        C726   1.407       .  A
C721        C825   1.486       .  S
C722        C723   1.403       .  A
C722        H727   1.083       .  S
C723        C724   1.407       .  A
C723        C766   1.484       .  S
C724        C725   1.406       .  A
C724        H728   1.083       .  S
C725        C726   1.406       .  A
C725        C841   1.490       .  S
C726        H729   1.083       .  S
C730        C731   1.406       .  A
C730        C735   1.406       .  A
C730        C833   1.490       .  S
C731        H736   1.083       .  S
C732        C733   1.403       .  A
C732        C751   1.484       .  S
C733        C734   1.406       .  A
C733        H737   1.083       .  S
C734        C817   1.486       .  S
O739       Cu747   2.017       .  S
O739        C749   1.278       .  A
O740      Cu1203   2.018   1_565  S
O741        C751   1.281       .  A
O742      Cu1659   2.016       .  S
O742        C752   1.281       .  A
O743      Cu1660   1.998       .  S
O745      Cu1204   1.994   1_565  S
O745        C750   1.278   1_556  A
O746       Cu748   1.996       .  S
Cu747      O1196   2.018   1_455  S
Cu747      O1654   2.016   1_455  S
Cu748      O1655   1.998   1_455  S
Cu748      O1201   1.994   1_455  S
C749        C771   1.481       .  S
O753       Cu761   1.994       .  S
O753        C763   1.278       .  A
O754       Cu761   1.996       .  S
O754        C764   1.278       .  A
O755       Cu761   1.998       .  S
O755        C765   1.276       .  A
O756       Cu761   2.000       .  S
O756        C766   1.277       .  A
O757       Cu762   2.020       .  S
O757        C766   1.280       .  A
O758       Cu762   2.015       .  S
O758        C765   1.281       .  A
O759       Cu762   2.018       .  S
O759        C764   1.278       .  A
O760       Cu762   2.019       .  S
O760        C763   1.278       .  A
Cu761      Cu762   2.370       .  S
C764        C780   1.481       .  S
C767        C768   1.407       .  A
C767        C772   1.409       .  A
C767        C809   1.487       .  S
C768        H773   1.083       .  S
C769        C770   1.399       .  A
C769        C793   1.480       .  S
C770        H774   1.084       .  S
C771        C772   1.407       .  A
C772        H775   1.083       .  S
C776        C777   1.403       .  A
C776        C781   1.399       .  A
C776        C785   1.480       .  S
C777        C778   1.407       .  A
C777        H782   1.083       .  S
C778        C779   1.409       .  A
C778        C801   1.487       .  S
C779        C780   1.407       .  A
C779        H783   1.083       .  S
C780        C781   1.403       .  A
C781        H784   1.084       .  S
C785        C786   1.406       .  A
C785        C790   1.404       .  A
C786        C787   1.396       .  A
C786        H795   1.083       .  S
C787        C788   1.401       .  A
C787        H796   1.084       .  S
C788        C794   1.402       .  A
C788        C789   1.415       .  A
C789        C791   1.401       .  A
C789        C790   1.402       .  A
C790        H797   1.084       .  S
C791        C792   1.396       .  A
C791        H798   1.084       .  S
C792        C793   1.406       .  A
C792        H799   1.083       .  S
C793        C794   1.404       .  A
C794        H800   1.084       .  S
C801        C802   1.407       .  A
C801        C806   1.407       .  A
C802        C803   1.397       .  A
C802        H811   1.083       .  S
C803        C804   1.402       .  A
C803        H812   1.084       .  S
C804        C810   1.405       .  A
C804        C805   1.414       .  A
C805        C807   1.401       .  A
C805        C806   1.405       .  A
C806        H813   1.084       .  S
C807        C808   1.397       .  A
C807        H814   1.084       .  S
C808        C809   1.407       .  A
C808        H815   1.083       .  S
C809        C810   1.407       .  A
C810        H816   1.084       .  S
C817        C818   1.406       .  A
C817        C822   1.407       .  A
C818        C819   1.397       .  A
C818        H827   1.083       .  S
C819        C820   1.402       .  A
C819        H828   1.084       .  S
C820        C826   1.403       .  A
C820        C821   1.413       .  A
C821        C823   1.402       .  A
C821        C822   1.403       .  A
C822        H829   1.084       .  S
C823        C824   1.397       .  A
C823        H830   1.084       .  S
C824        C825   1.406       .  A
C824        H831   1.083       .  S
C825        C826   1.407       .  A
C826        H832   1.084       .  S
C833        C834   1.407       .  A
C833        C838   1.408       .  A
C834        C835   1.398       .  A
C834        H843   1.083       .  S
C835        C836   1.402       .  A
C835        H844   1.084       .  S
C836        C842   1.406       .  A
C836        C837   1.413       .  A
C837        C839   1.402       .  A
C837        C838   1.406       .  A
C838        H845   1.084       .  S
C839        C840   1.398       .  A
C839        H846   1.084       .  S
C840        C841   1.407       .  A
C840        H847   1.083       .  S
C841        C842   1.408       .  A
C842        H848   1.084       .  S
C849        C850   1.405       .  A
C849        C854   1.403       .  A
C850        C851   1.395       .  A
C850        H859   1.083       .  S
C851        C852   1.401       .  A
C851        H860   1.084       .  S
C852        C858   1.402       .  A
C852        C853   1.415       .  A
C853        C855   1.401       .  A
C853        C854   1.402       .  A
C854        H861   1.084       .  S
C855        C856   1.395       .  A
C855        H862   1.084       .  S
C856        C857   1.406       .  A
C856        H863   1.083       .  S
C857        C858   1.403       .  A
C858        H864   1.084       .  S
C865        C866   1.407       .  A
C865        C870   1.408       .  A
C866        C867   1.398       .  A
C866        H875   1.083       .  S
C867        C868   1.402       .  A
C867        H876   1.084       .  S
C868        C874   1.406       .  A
C868        C869   1.414       .  A
C869        C871   1.402       .  A
C869        C870   1.406       .  A
C870        H877   1.084       .  S
C871        C872   1.398       .  A
C871        H878   1.084       .  S
C872        C873   1.407       .  A
C872        H879   1.083       .  S
C873        C874   1.408       .  A
C874        H880   1.084       .  S
C881        C882   1.406       .  A
C881        C886   1.404       .  A
C882        C883   1.395       .  A
C882        H891   1.083       .  S
C883        C884   1.401       .  A
C883        H892   1.084       .  S
C884        C890   1.402       .  A
C884        C885   1.415       .  A
C885        C887   1.401       .  A
C885        C886   1.402       .  A
C886        H893   1.084       .  S
C887        C888   1.395       .  A
C887        H894   1.084       .  S
C888        C889   1.406       .  A
C888        H895   1.083       .  S
C889        C890   1.404       .  A
C890        H896   1.084       .  S
C897        C898   1.408       .  A
C897        C902   1.407       .  A
C898        C899   1.397       .  A
C898        H907   1.083       .  S
C899        C900   1.401       .  A
C899        H908   1.084       .  S
C900        C906   1.407       .  A
C900        C901   1.414       .  A
C901        C903   1.401       .  A
C901        C902   1.407       .  A
C902        H909   1.084       .  S
C903        C904   1.397       .  A
C903        H910   1.084       .  S
C904        C905   1.408       .  A
C904        H911   1.083       .  S
C905        C906   1.407       .  A
C906        H912   1.084       .  S
C913        C914   1.407       .  A
C913        C918   1.412       .  A
C913       C1125   1.490       .  S
C914        C915   1.401       .  A
C914        H919   1.083       .  S
C915        C916   1.397       .  A
C915       C1109   1.479       .  S
C916        C917   1.402       .  A
C916        H920   1.084       .  S
C917        C918   1.409       .  A
C917        C991   1.482       .  S
C918        H921   1.083       .  S
C922        C923   1.397       .  A
C922        C927   1.401       .  A
C922       C1117   1.479       .  S
C923       C1152   1.402       .  A
C923        H928   1.084       .  S
C924       C1151   1.402   1_554  A
C924        C925   1.409       .  A
C924       C1206   1.481       .  S
C925        C926   1.411       .  A
C925        H929   1.083       .  S
C926       C1155   1.407   1_554  A
C926       C1133   1.490       .  S
C927       C1154   1.407       .  A
C927       H1158   1.083       .  S
H930       C1155   1.083       .  S
C931        C932   1.400       .  A
C931        C936   1.404       .  A
C931       C1085   1.478       .  S
C932        C933   1.401       .  A
C932        H937   1.084       .  S
C933        C934   1.409       .  A
C933        C993   1.481       .  S
C934        C935   1.408       .  A
C934        H938   1.083       .  S
C935        C936   1.406       .  A
C935       C1101   1.489       .  S
C936        H939   1.083       .  S
C940        C941   1.406       .  A
C940        C945   1.408       .  A
C940       C1093   1.489       .  S
C941       C1170   1.404       .  A
C941       H1174   1.083       .  S
C942       C1169   1.404       .  A
C942        C943   1.400       .  A
C942       C1077   1.478       .  S
C943        C944   1.401       .  A
C943        H947   1.084       .  S
C944       C1173   1.409   1_554  A
C944        C980   1.481       .  S
C945       C1172   1.409       .  A
C945        H948   1.083       .  S
H946       C1169   1.083       .  S
C949        C950   1.406       .  A
C949        C954   1.407       .  A
C949       C1053   1.486       .  S
C950        C951   1.403       .  A
C950        H955   1.083       .  S
C951        C952   1.407       .  A
C951        C994   1.484       .  S
C952        C953   1.406       .  A
C952        H956   1.083       .  S
C953        C954   1.406       .  A
C953       C1069   1.490       .  S
C954        H957   1.083       .  S
C958        C959   1.406       .  A
C958        C963   1.406       .  A
C958       C1061   1.490       .  S
C959       C1188   1.407       .  A
C959        H964   1.083       .  S
C960       C1187   1.407       .  A
C960        C961   1.403   1_556  A
C960        C979   1.484   1_556  S
C961        C962   1.406       .  A
C961        H965   1.083       .  S
C962       C1191   1.407   1_554  A
C962       C1045   1.486       .  S
C963       C1190   1.407       .  A
C963       H1194   1.083       .  S
H966       C1191   1.083       .  S
O967       Cu975   2.017       .  S
O967        C977   1.278       .  A
O968       C1206   1.278       .  A
O969      Cu1431   2.021       .  S
O969        C979   1.281       .  A
O970        C980   1.281       .  A
O971       C1208   1.275       .  A
O972      Cu1432   2.000       .  S
O972       C1207   1.276       .  A
O973        C978   1.278       .  A
O974       Cu976   1.996       .  S
O974       C1205   1.278       .  A
Cu975      O1425   2.021   1_545  S
Cu975     Cu1204   2.370   1_554  S
Cu976      O1428   2.000   1_545  S
Cu976     Cu1203   2.370       .  S
C977        C999   1.481       .  S
C977       O1202   1.278   1_554  A
C978       C1152   1.481       .  S
C978       O1196   1.278       .  A
C979       O1200   1.276   1_554  A
C980       O1199   1.275   1_554  A
O981       Cu989   1.994       .  S
O981        C991   1.278       .  A
O982       Cu989   1.996       .  S
O982        C992   1.278       .  A
O983       Cu989   1.998       .  S
O983        C993   1.276       .  A
O984       Cu989   2.000       .  S
O984        C994   1.277       .  A
O985       Cu990   2.020       .  S
O985        C994   1.280       .  A
O986       Cu990   2.015       .  S
O986        C993   1.281       .  A
O987       Cu990   2.018       .  S
O987        C992   1.278       .  A
O988       Cu990   2.019       .  S
O988        C991   1.278       .  A
Cu989      Cu990   2.370       .  S
C992       C1008   1.481       .  S
C995        C996   1.407   1_554  A
C995       C1000   1.409       .  A
C995       C1037   1.487       .  S
C996       C1225   1.402       .  A
C996       H1001   1.083       .  S
C997       C1224   1.402       .  A
C997        C998   1.399       .  A
C997       C1021   1.480       .  S
C998       C1227   1.403       .  A
C998       H1002   1.084       .  S
C999       C1226   1.403   1_554  A
C999       C1000   1.407       .  A
C1000      H1003   1.083       .  S
C1004      C1005   1.403       .  A
C1004      C1009   1.399       .  A
C1004      C1013   1.480       .  S
C1005      C1006   1.407       .  A
C1005      H1010   1.083       .  S
C1006      C1007   1.409       .  A
C1006      C1029   1.487       .  S
C1007      C1008   1.407       .  A
C1007      H1011   1.083       .  S
C1008      C1009   1.403       .  A
C1009      H1012   1.083       .  S
C1013      C1014   1.406       .  A
C1013      C1018   1.404       .  A
C1014      C1015   1.396       .  A
C1014      H1023   1.083       .  S
C1015      C1016   1.401       .  A
C1015      H1024   1.084       .  S
C1016      C1022   1.402       .  A
C1016      C1017   1.415       .  A
C1017      C1019   1.401       .  A
C1017      C1018   1.402       .  A
C1018      H1025   1.084       .  S
C1019      C1020   1.396       .  A
C1019      H1026   1.084       .  S
C1020      C1021   1.406       .  A
C1020      H1027   1.083       .  S
C1021      C1022   1.404       .  A
C1022      H1028   1.084       .  S
C1029      C1030   1.407       .  A
C1029      C1034   1.407       .  A
C1030      C1031   1.397       .  A
C1030      H1039   1.083       .  S
C1031      C1032   1.402       .  A
C1031      H1040   1.084       .  S
C1032      C1038   1.405       .  A
C1032      C1033   1.414       .  A
C1033      C1035   1.401       .  A
C1033      C1034   1.405       .  A
C1034      H1041   1.084       .  S
C1035      C1036   1.397       .  A
C1035      H1042   1.084       .  S
C1036      C1037   1.407       .  A
C1036      H1043   1.083       .  S
C1037      C1038   1.407       .  A
C1038      H1044   1.084       .  S
C1045      C1046   1.406       .  A
C1045      C1050   1.407       .  A
C1046      C1047   1.397       .  A
C1046      H1055   1.083       .  S
C1047      C1048   1.402       .  A
C1047      H1056   1.084       .  S
C1048      C1054   1.403       .  A
C1048      C1049   1.413       .  A
C1049      C1051   1.402       .  A
C1049      C1050   1.403       .  A
C1050      H1057   1.084       .  S
C1051      C1052   1.397       .  A
C1051      H1058   1.084       .  S
C1052      C1053   1.406       .  A
C1052      H1059   1.083       .  S
C1053      C1054   1.407       .  A
C1054      H1060   1.084       .  S
C1061      C1062   1.407       .  A
C1061      C1066   1.408       .  A
C1062      C1063   1.398       .  A
C1062      H1071   1.083       .  S
C1063      C1064   1.402       .  A
C1063      H1072   1.084       .  S
C1064      C1070   1.406       .  A
C1064      C1065   1.413       .  A
C1065      C1067   1.402       .  A
C1065      C1066   1.406       .  A
C1066      H1073   1.084       .  S
C1067      C1068   1.398       .  A
C1067      H1074   1.083       .  S
C1068      C1069   1.407       .  A
C1068      H1075   1.083       .  S
C1069      C1070   1.408       .  A
C1070      H1076   1.084       .  S
C1077      C1078   1.405       .  A
C1077      C1082   1.403       .  A
C1078      C1079   1.395       .  A
C1078      H1087   1.083       .  S
C1079      C1080   1.401       .  A
C1079      H1088   1.084       .  S
C1080      C1086   1.402       .  A
C1080      C1081   1.415       .  A
C1081      C1083   1.400       .  A
C1081      C1082   1.402       .  A
C1082      H1089   1.084       .  S
C1083      C1084   1.395       .  A
C1083      H1090   1.084       .  S
C1084      C1085   1.406       .  A
C1084      H1091   1.083       .  S
C1085      C1086   1.403       .  A
C1086      H1092   1.084       .  S
C1093      C1094   1.407       .  A
C1093      C1098   1.408       .  A
C1094      C1095   1.398       .  A
C1094      H1103   1.083       .  S
C1095      C1096   1.402       .  A
C1095      H1104   1.084       .  S
C1096      C1102   1.406       .  A
C1096      C1097   1.414       .  A
C1097      C1099   1.402       .  A
C1097      C1098   1.406       .  A
C1098      H1105   1.084       .  S
C1099      C1100   1.398       .  A
C1099      H1106   1.084       .  S
C1100      C1101   1.407       .  A
C1100      H1107   1.083       .  S
C1101      C1102   1.408       .  A
C1102      H1108   1.084       .  S
C1109      C1110   1.406       .  A
C1109      C1114   1.404       .  A
C1110      C1111   1.395       .  A
C1110      H1119   1.083       .  S
C1111      C1112   1.401       .  A
C1111      H1120   1.084       .  S
C1112      C1118   1.402       .  A
C1112      C1113   1.415       .  A
C1113      C1115   1.401       .  A
C1113      C1114   1.402       .  A
C1114      H1121   1.084       .  S
C1115      C1116   1.395       .  A
C1115      H1122   1.084       .  S
C1116      C1117   1.406       .  A
C1116      H1123   1.083       .  S
C1117      C1118   1.404       .  A
C1118      H1124   1.084       .  S
C1125      C1126   1.408       .  A
C1125      C1130   1.407       .  A
C1126      C1127   1.397       .  A
C1126      H1135   1.083       .  S
C1127      C1128   1.401       .  A
C1127      H1136   1.084       .  S
C1128      C1134   1.407       .  A
C1128      C1129   1.414       .  A
C1129      C1131   1.401       .  A
C1129      C1130   1.407       .  A
C1130      H1137   1.084       .  S
C1131      C1132   1.397       .  A
C1131      H1138   1.084       .  S
C1132      C1133   1.408       .  A
C1132      H1139   1.083       .  S
C1133      C1134   1.407       .  A
C1134      H1140   1.084       .  S
C1141      C1142   1.407       .  A
C1141      C1146   1.412       .  A
C1141      C1353   1.490       .  S
C1142      C1143   1.401       .  A
C1142      H1147   1.083       .  S
C1143      C1144   1.397       .  A
C1143      C1337   1.479       .  S
C1144      C1145   1.402       .  A
C1144      H1148   1.084       .  S
C1145      C1146   1.409       .  A
C1145      C1219   1.482       .  S
C1146      H1149   1.083       .  S
C1150      C1151   1.397       .  A
C1150      C1155   1.401       .  A
C1150      C1345   1.479       .  S
C1151      H1156   1.084       .  S
C1152      C1153   1.409       .  A
C1153      C1154   1.411       .  A
C1153      H1157   1.083       .  S
C1154      C1361   1.490       .  S
C1159      C1160   1.400       .  A
C1159      C1164   1.404       .  A
C1159      C1313   1.478       .  S
C1160      C1161   1.401       .  A
C1160      H1165   1.084       .  S
C1161      C1162   1.409       .  A
C1161      C1221   1.481       .  S
C1162      C1163   1.408       .  A
C1162      H1166   1.083       .  S
C1163      C1164   1.406       .  A
C1163      C1329   1.489       .  S
C1164      H1167   1.083       .  S
C1168      C1169   1.406   1_556  A
C1168      C1173   1.408       .  A
C1168      C1321   1.489       .  S
C1170      C1171   1.400       .  A
C1170      C1305   1.478       .  S
C1171      C1172   1.401       .  A
C1171      H1175   1.084       .  S
C1172      C1208   1.481       .  S
C1173      H1176   1.083       .  S
C1177      C1178   1.406       .  A
C1177      C1182   1.407       .  A
C1177      C1281   1.486       .  S
C1178      C1179   1.403       .  A
C1178      H1183   1.083       .  S
C1179      C1180   1.407       .  A
C1179      C1222   1.484       .  S
C1180      C1181   1.406       .  A
C1180      H1184   1.083       .  S
C1181      C1182   1.406       .  A
C1181      C1297   1.490       .  S
C1182      H1185   1.083       .  S
C1186      C1187   1.406       .  A
C1186      C1191   1.406       .  A
C1186      C1289   1.490       .  S
C1187      H1192   1.083       .  S
C1188      C1189   1.403       .  A
C1188      C1207   1.484       .  S
C1189      C1190   1.406       .  A
C1189      H1193   1.083       .  S
C1190      C1273   1.486       .  S
O1195     Cu1203   2.017       .  S
O1195      C1205   1.278       .  A
O1197     Cu1659   2.022       .  S
O1197      C1207   1.281       .  A
O1198      C1208   1.281       .  A
O1200     Cu1660   2.000       .  S
O1201      C1206   1.278   1_556  A
O1202     Cu1204   1.996       .  S
Cu1203     O1653   2.022   1_545  S
Cu1204     O1656   2.000   1_545  S
C1205      C1227   1.481       .  S
O1209     Cu1217   1.994       .  S
O1209      C1219   1.278       .  A
O1210     Cu1217   1.996       .  S
O1210      C1220   1.278       .  A
O1211     Cu1217   1.998       .  S
O1211      C1221   1.276       .  A
O1212     Cu1217   2.000       .  S
O1212      C1222   1.277       .  A
O1213     Cu1218   2.020       .  S
O1213      C1222   1.280       .  A
O1214     Cu1218   2.015       .  S
O1214      C1221   1.281       .  A
O1215     Cu1218   2.018       .  S
O1215      C1220   1.278       .  A
O1216     Cu1218   2.019       .  S
O1216      C1219   1.278       .  A
Cu1217    Cu1218   2.370       .  S
C1220      C1236   1.481       .  S
C1223      C1224   1.407       .  A
C1223      C1228   1.409       .  A
C1223      C1265   1.487       .  S
C1224      H1229   1.083       .  S
C1225      C1226   1.399       .  A
C1225      C1249   1.480       .  S
C1226      H1230   1.084       .  S
C1227      C1228   1.407       .  A
C1228      H1231   1.083       .  S
C1232      C1233   1.403       .  A
C1232      C1237   1.399       .  A
C1232      C1241   1.480       .  S
C1233      C1234   1.407       .  A
C1233      H1238   1.083       .  S
C1234      C1235   1.409       .  A
C1234      C1257   1.487       .  S
C1235      C1236   1.407       .  A
C1235      H1239   1.083       .  S
C1236      C1237   1.403       .  A
C1237      H1240   1.084       .  S
C1241      C1242   1.406       .  A
C1241      C1246   1.404       .  A
C1242      C1243   1.396       .  A
C1242      H1251   1.083       .  S
C1243      C1244   1.401       .  A
C1243      H1252   1.084       .  S
C1244      C1250   1.402       .  A
C1244      C1245   1.415       .  A
C1245      C1247   1.401       .  A
C1245      C1246   1.402       .  A
C1246      H1253   1.084       .  S
C1247      C1248   1.396       .  A
C1247      H1254   1.084       .  S
C1248      C1249   1.406       .  A
C1248      H1255   1.083       .  S
C1249      C1250   1.404       .  A
C1250      H1256   1.084       .  S
C1257      C1258   1.407       .  A
C1257      C1262   1.407       .  A
C1258      C1259   1.397       .  A
C1258      H1267   1.083       .  S
C1259      C1260   1.402       .  A
C1259      H1268   1.084       .  S
C1260      C1266   1.405       .  A
C1260      C1261   1.414       .  A
C1261      C1263   1.401       .  A
C1261      C1262   1.405       .  A
C1262      H1269   1.084       .  S
C1263      C1264   1.397       .  A
C1263      H1270   1.084       .  S
C1264      C1265   1.407       .  A
C1264      H1271   1.083       .  S
C1265      C1266   1.407       .  A
C1266      H1272   1.084       .  S
C1273      C1274   1.406       .  A
C1273      C1278   1.407       .  A
C1274      C1275   1.397       .  A
C1274      H1283   1.083       .  S
C1275      C1276   1.402       .  A
C1275      H1284   1.084       .  S
C1276      C1282   1.403       .  A
C1276      C1277   1.413       .  A
C1277      C1279   1.402       .  A
C1277      C1278   1.403       .  A
C1278      H1285   1.084       .  S
C1279      C1280   1.397       .  A
C1279      H1286   1.084       .  S
C1280      C1281   1.406       .  A
C1280      H1287   1.083       .  S
C1281      C1282   1.407       .  A
C1282      H1288   1.084       .  S
C1289      C1290   1.407       .  A
C1289      C1294   1.408       .  A
C1290      C1291   1.398       .  A
C1290      H1299   1.083       .  S
C1291      C1292   1.402       .  A
C1291      H1300   1.084       .  S
C1292      C1298   1.406       .  A
C1292      C1293   1.413       .  A
C1293      C1295   1.402       .  A
C1293      C1294   1.406       .  A
C1294      H1301   1.084       .  S
C1295      C1296   1.398       .  A
C1295      H1302   1.084       .  S
C1296      C1297   1.407       .  A
C1296      H1303   1.083       .  S
C1297      C1298   1.408       .  A
C1298      H1304   1.084       .  S
C1305      C1306   1.405       .  A
C1305      C1310   1.403       .  A
C1306      C1307   1.395       .  A
C1306      H1315   1.083       .  S
C1307      C1308   1.401       .  A
C1307      H1316   1.084       .  S
C1308      C1314   1.402       .  A
C1308      C1309   1.415       .  A
C1309      C1311   1.400       .  A
C1309      C1310   1.402       .  A
C1310      H1317   1.084       .  S
C1311      C1312   1.395       .  A
C1311      H1318   1.084       .  S
C1312      C1313   1.406       .  A
C1312      H1319   1.083       .  S
C1313      C1314   1.403       .  A
C1314      H1320   1.084       .  S
C1321      C1322   1.407       .  A
C1321      C1326   1.408       .  A
C1322      C1323   1.398       .  A
C1322      H1331   1.083       .  S
C1323      C1324   1.402       .  A
C1323      H1332   1.084       .  S
C1324      C1330   1.406       .  A
C1324      C1325   1.414       .  A
C1325      C1327   1.402       .  A
C1325      C1326   1.406       .  A
C1326      H1333   1.084       .  S
C1327      C1328   1.398       .  A
C1327      H1334   1.084       .  S
C1328      C1329   1.407       .  A
C1328      H1335   1.083       .  S
C1329      C1330   1.408       .  A
C1330      H1336   1.084       .  S
C1337      C1338   1.406       .  A
C1337      C1342   1.404       .  A
C1338      C1339   1.395       .  A
C1338      H1347   1.083       .  S
C1339      C1340   1.401       .  A
C1339      H1348   1.084       .  S
C1340      C1346   1.402       .  A
C1340      C1341   1.415       .  A
C1341      C1343   1.401       .  A
C1341      C1342   1.402       .  A
C1342      H1349   1.084       .  S
C1343      C1344   1.395       .  A
C1343      H1350   1.084       .  S
C1344      C1345   1.406       .  A
C1344      H1351   1.083       .  S
C1345      C1346   1.404       .  A
C1346      H1352   1.084       .  S
C1353      C1354   1.408       .  A
C1353      C1358   1.407       .  A
C1354      C1355   1.397       .  A
C1354      H1363   1.083       .  S
C1355      C1356   1.401       .  A
C1355      H1364   1.084       .  S
C1356      C1362   1.407       .  A
C1356      C1357   1.414       .  A
C1357      C1359   1.401       .  A
C1357      C1358   1.407       .  A
C1358      H1365   1.084       .  S
C1359      C1360   1.397       .  A
C1359      H1366   1.084       .  S
C1360      C1361   1.408       .  A
C1360      H1367   1.083       .  S
C1361      C1362   1.407       .  A
C1362      H1368   1.084       .  S
C1369      C1370   1.407       .  A
C1369      C1374   1.412       .  A
C1369      C1581   1.490       .  S
C1370      C1371   1.401       .  A
C1370      H1375   1.083       .  S
C1371      C1372   1.397       .  A
C1371      C1565   1.479       .  S
C1372      C1373   1.402       .  A
C1372      H1376   1.084       .  S
C1373      C1374   1.409       .  A
C1373      C1447   1.482       .  S
C1374      H1377   1.083       .  S
C1378      C1379   1.397       .  A
C1378      C1383   1.401       .  A
C1378      C1573   1.479       .  S
C1379      C1608   1.402       .  A
C1379      H1384   1.084       .  S
C1380      C1607   1.402   1_554  A
C1380      C1381   1.409       .  A
C1380      C1662   1.481       .  S
C1381      C1382   1.411       .  A
C1381      H1385   1.083       .  S
C1382      C1611   1.407   1_554  A
C1382      C1589   1.490       .  S
C1383      C1610   1.407       .  A
C1383      H1614   1.083       .  S
H1386      C1611   1.083       .  S
C1387      C1388   1.400       .  A
C1387      C1392   1.404       .  A
C1387      C1541   1.478       .  S
C1388      C1389   1.401       .  A
C1388      H1393   1.084       .  S
C1389      C1390   1.409       .  A
C1389      C1449   1.481       .  S
C1390      C1391   1.408       .  A
C1390      H1394   1.083       .  S
C1391      C1392   1.406       .  A
C1391      C1557   1.489       .  S
C1392      H1395   1.083       .  S
C1396      C1397   1.406       .  A
C1396      C1401   1.408       .  A
C1396      C1549   1.489       .  S
C1397      C1626   1.404       .  A
C1397      H1630   1.083       .  S
C1398      C1625   1.404       .  A
C1398      C1399   1.400       .  A
C1398      C1533   1.478       .  S
C1399      C1400   1.401       .  A
C1399      H1403   1.084       .  S
C1400      C1629   1.409   1_554  A
C1400      C1436   1.481       .  S
C1401      C1628   1.409       .  A
C1401      H1404   1.083       .  S
H1402      C1625   1.083       .  S
C1405      C1406   1.406       .  A
C1405      C1410   1.407       .  A
C1405      C1509   1.486       .  S
C1406      C1407   1.403       .  A
C1406      H1411   1.083       .  S
C1407      C1408   1.407       .  A
C1407      C1450   1.484       .  S
C1408      C1409   1.406       .  A
C1408      H1412   1.083       .  S
C1409      C1410   1.406       .  A
C1409      C1525   1.490       .  S
C1410      H1413   1.083       .  S
C1414      C1415   1.406       .  A
C1414      C1419   1.406       .  A
C1414      C1517   1.490       .  S
C1415      C1644   1.407       .  A
C1415      H1420   1.083       .  S
C1416      C1643   1.407       .  A
C1416      C1417   1.403   1_556  A
C1416      C1435   1.484   1_556  S
C1417      C1418   1.406       .  A
C1417      H1421   1.083       .  S
C1418      C1647   1.407   1_554  A
C1418      C1501   1.486       .  S
C1419      C1646   1.407       .  A
C1419      H1650   1.083       .  S
H1422      C1647   1.083       .  S
O1423     Cu1431   2.017       .  S
O1423      C1433   1.278       .  A
O1424      C1662   1.278       .  A
O1425      C1435   1.281       .  A
O1426      C1436   1.281       .  A
O1427      C1664   1.275       .  A
O1428      C1663   1.276       .  A
O1429      C1434   1.278       .  A
O1430     Cu1432   1.996       .  S
O1430      C1661   1.278       .  A
Cu1431    Cu1660   2.370   1_554  S
Cu1432    Cu1659   2.370       .  S
C1433      C1455   1.481       .  S
C1433      O1658   1.278   1_554  A
C1434      C1608   1.481       .  S
C1434      O1652   1.278       .  A
C1435      O1656   1.276   1_554  A
C1436      O1655   1.275   1_554  A
O1437     Cu1445   1.994       .  S
O1437      C1447   1.278       .  A
O1438     Cu1445   1.996       .  S
O1438      C1448   1.278       .  A
O1439     Cu1445   1.998       .  S
O1439      C1449   1.276       .  A
O1440     Cu1445   2.000       .  S
O1440      C1450   1.277       .  A
O1441     Cu1446   2.020       .  S
O1441      C1450   1.280       .  A
O1442     Cu1446   2.015       .  S
O1442      C1449   1.281       .  A
O1443     Cu1446   2.018       .  S
O1443      C1448   1.278       .  A
O1444     Cu1446   2.019       .  S
O1444      C1447   1.278       .  A
Cu1445    Cu1446   2.370       .  S
C1448      C1464   1.481       .  S
C1451      C1452   1.407   1_554  A
C1451      C1456   1.409       .  A
C1451      C1493   1.487       .  S
C1452      C1681   1.402       .  A
C1452      H1457   1.083       .  S
C1453      C1680   1.402       .  A
C1453      C1454   1.399       .  A
C1453      C1477   1.480       .  S
C1454      C1683   1.403       .  A
C1454      H1458   1.084       .  S
C1455      C1682   1.403   1_554  A
C1455      C1456   1.407       .  A
C1456      H1459   1.083       .  S
C1460      C1461   1.403       .  A
C1460      C1465   1.399       .  A
C1460      C1469   1.480       .  S
C1461      C1462   1.407       .  A
C1461      H1466   1.083       .  S
C1462      C1463   1.409       .  A
C1462      C1485   1.487       .  S
C1463      C1464   1.407       .  A
C1463      H1467   1.083       .  S
C1464      C1465   1.403       .  A
C1465      H1468   1.083       .  S
C1469      C1470   1.406       .  A
C1469      C1474   1.404       .  A
C1470      C1471   1.396       .  A
C1470      H1479   1.083       .  S
C1471      C1472   1.401       .  A
C1471      H1480   1.084       .  S
C1472      C1478   1.402       .  A
C1472      C1473   1.415       .  A
C1473      C1475   1.401       .  A
C1473      C1474   1.402       .  A
C1474      H1481   1.084       .  S
C1475      C1476   1.396       .  A
C1475      H1482   1.084       .  S
C1476      C1477   1.406       .  A
C1476      H1483   1.083       .  S
C1477      C1478   1.404       .  A
C1478      H1484   1.084       .  S
C1485      C1486   1.407       .  A
C1485      C1490   1.407       .  A
C1486      C1487   1.397       .  A
C1486      H1495   1.083       .  S
C1487      C1488   1.402       .  A
C1487      H1496   1.084       .  S
C1488      C1494   1.405       .  A
C1488      C1489   1.414       .  A
C1489      C1491   1.401       .  A
C1489      C1490   1.405       .  A
C1490      H1497   1.084       .  S
C1491      C1492   1.397       .  A
C1491      H1498   1.084       .  S
C1492      C1493   1.407       .  A
C1492      H1499   1.083       .  S
C1493      C1494   1.407       .  A
C1494      H1500   1.084       .  S
C1501      C1502   1.406       .  A
C1501      C1506   1.407       .  A
C1502      C1503   1.397       .  A
C1502      H1511   1.083       .  S
C1503      C1504   1.402       .  A
C1503      H1512   1.084       .  S
C1504      C1510   1.403       .  A
C1504      C1505   1.413       .  A
C1505      C1507   1.402       .  A
C1505      C1506   1.403       .  A
C1506      H1513   1.084       .  S
C1507      C1508   1.397       .  A
C1507      H1514   1.084       .  S
C1508      C1509   1.406       .  A
C1508      H1515   1.083       .  S
C1509      C1510   1.407       .  A
C1510      H1516   1.084       .  S
C1517      C1518   1.407       .  A
C1517      C1522   1.408       .  A
C1518      C1519   1.398       .  A
C1518      H1527   1.083       .  S
C1519      C1520   1.402       .  A
C1519      H1528   1.084       .  S
C1520      C1526   1.406       .  A
C1520      C1521   1.413       .  A
C1521      C1523   1.402       .  A
C1521      C1522   1.406       .  A
C1522      H1529   1.084       .  S
C1523      C1524   1.398       .  A
C1523      H1530   1.083       .  S
C1524      C1525   1.407       .  A
C1524      H1531   1.083       .  S
C1525      C1526   1.408       .  A
C1526      H1532   1.084       .  S
C1533      C1534   1.405       .  A
C1533      C1538   1.403       .  A
C1534      C1535   1.395       .  A
C1534      H1543   1.083       .  S
C1535      C1536   1.401       .  A
C1535      H1544   1.084       .  S
C1536      C1542   1.402       .  A
C1536      C1537   1.415       .  A
C1537      C1539   1.400       .  A
C1537      C1538   1.402       .  A
C1538      H1545   1.084       .  S
C1539      C1540   1.395       .  A
C1539      H1546   1.084       .  S
C1540      C1541   1.406       .  A
C1540      H1547   1.083       .  S
C1541      C1542   1.403       .  A
C1542      H1548   1.084       .  S
C1549      C1550   1.407       .  A
C1549      C1554   1.408       .  A
C1550      C1551   1.398       .  A
C1550      H1559   1.083       .  S
C1551      C1552   1.402       .  A
C1551      H1560   1.084       .  S
C1552      C1558   1.406       .  A
C1552      C1553   1.414       .  A
C1553      C1555   1.402       .  A
C1553      C1554   1.406       .  A
C1554      H1561   1.084       .  S
C1555      C1556   1.398       .  A
C1555      H1562   1.084       .  S
C1556      C1557   1.407       .  A
C1556      H1563   1.083       .  S
C1557      C1558   1.408       .  A
C1558      H1564   1.084       .  S
C1565      C1566   1.406       .  A
C1565      C1570   1.404       .  A
C1566      C1567   1.395       .  A
C1566      H1575   1.083       .  S
C1567      C1568   1.401       .  A
C1567      H1576   1.084       .  S
C1568      C1574   1.402       .  A
C1568      C1569   1.415       .  A
C1569      C1571   1.401       .  A
C1569      C1570   1.402       .  A
C1570      H1577   1.084       .  S
C1571      C1572   1.395       .  A
C1571      H1578   1.084       .  S
C1572      C1573   1.406       .  A
C1572      H1579   1.083       .  S
C1573      C1574   1.404       .  A
C1574      H1580   1.084       .  S
C1581      C1582   1.408       .  A
C1581      C1586   1.407       .  A
C1582      C1583   1.397       .  A
C1582      H1591   1.083       .  S
C1583      C1584   1.401       .  A
C1583      H1592   1.084       .  S
C1584      C1590   1.407       .  A
C1584      C1585   1.414       .  A
C1585      C1587   1.401       .  A
C1585      C1586   1.407       .  A
C1586      H1593   1.084       .  S
C1587      C1588   1.397       .  A
C1587      H1594   1.084       .  S
C1588      C1589   1.408       .  A
C1588      H1595   1.083       .  S
C1589      C1590   1.407       .  A
C1590      H1596   1.084       .  S
C1597      C1598   1.407       .  A
C1597      C1602   1.412       .  A
C1597      C1809   1.490       .  S
C1598      C1599   1.401       .  A
C1598      H1603   1.083       .  S
C1599      C1600   1.397       .  A
C1599      C1793   1.479       .  S
C1600      C1601   1.402       .  A
C1600      H1604   1.084       .  S
C1601      C1602   1.409       .  A
C1601      C1675   1.482       .  S
C1602      H1605   1.083       .  S
C1606      C1607   1.397       .  A
C1606      C1611   1.401       .  A
C1606      C1801   1.479       .  S
C1607      H1612   1.084       .  S
C1608      C1609   1.409       .  A
C1609      C1610   1.411       .  A
C1609      H1613   1.083       .  S
C1610      C1817   1.490       .  S
C1615      C1616   1.400       .  A
C1615      C1620   1.404       .  A
C1615      C1769   1.478       .  S
C1616      C1617   1.401       .  A
C1616      H1621   1.084       .  S
C1617      C1618   1.409       .  A
C1617      C1677   1.481       .  S
C1618      C1619   1.408       .  A
C1618      H1622   1.083       .  S
C1619      C1620   1.406       .  A
C1619      C1785   1.489       .  S
C1620      H1623   1.083       .  S
C1624      C1625   1.406   1_556  A
C1624      C1629   1.408       .  A
C1624      C1777   1.489       .  S
C1626      C1627   1.400       .  A
C1626      C1761   1.478       .  S
C1627      C1628   1.401       .  A
C1627      H1631   1.084       .  S
C1628      C1664   1.481       .  S
C1629      H1632   1.083       .  S
C1633      C1634   1.406       .  A
C1633      C1638   1.407       .  A
C1633      C1737   1.486       .  S
C1634      C1635   1.403       .  A
C1634      H1639   1.083       .  S
C1635      C1636   1.407       .  A
C1635      C1678   1.484       .  S
C1636      C1637   1.406       .  A
C1636      H1640   1.083       .  S
C1637      C1638   1.406       .  A
C1637      C1753   1.490       .  S
C1638      H1641   1.083       .  S
C1642      C1643   1.406       .  A
C1642      C1647   1.406       .  A
C1642      C1745   1.490       .  S
C1643      H1648   1.083       .  S
C1644      C1645   1.403       .  A
C1644      C1663   1.484       .  S
C1645      C1646   1.406       .  A
C1645      H1649   1.083       .  S
C1646      C1729   1.486       .  S
O1651     Cu1659   2.017       .  S
O1651      C1661   1.278       .  A
O1653      C1663   1.281       .  A
O1654      C1664   1.281       .  A
O1657      C1662   1.278   1_556  A
O1658     Cu1660   1.996       .  S
C1661      C1683   1.481       .  S
O1665     Cu1673   1.994       .  S
O1665      C1675   1.278       .  A
O1666     Cu1673   1.996       .  S
O1666      C1676   1.278       .  A
O1667     Cu1673   1.998       .  S
O1667      C1677   1.276       .  A
O1668     Cu1673   2.000       .  S
O1668      C1678   1.277       .  A
O1669     Cu1674   2.020       .  S
O1669      C1678   1.280       .  A
O1670     Cu1674   2.015       .  S
O1670      C1677   1.281       .  A
O1671     Cu1674   2.018       .  S
O1671      C1676   1.278       .  A
O1672     Cu1674   2.019       .  S
O1672      C1675   1.278       .  A
Cu1673    Cu1674   2.370       .  S
C1676      C1692   1.481       .  S
C1679      C1680   1.407       .  A
C1679      C1684   1.409       .  A
C1679      C1721   1.487       .  S
C1680      H1685   1.083       .  S
C1681      C1682   1.399       .  A
C1681      C1705   1.480       .  S
C1682      H1686   1.084       .  S
C1683      C1684   1.407       .  A
C1684      H1687   1.083       .  S
C1688      C1689   1.403       .  A
C1688      C1693   1.399       .  A
C1688      C1697   1.480       .  S
C1689      C1690   1.407       .  A
C1689      H1694   1.083       .  S
C1690      C1691   1.409       .  A
C1690      C1713   1.487       .  S
C1691      C1692   1.407       .  A
C1691      H1695   1.083       .  S
C1692      C1693   1.403       .  A
C1693      H1696   1.084       .  S
C1697      C1698   1.406       .  A
C1697      C1702   1.404       .  A
C1698      C1699   1.396       .  A
C1698      H1707   1.083       .  S
C1699      C1700   1.401       .  A
C1699      H1708   1.084       .  S
C1700      C1706   1.402       .  A
C1700      C1701   1.415       .  A
C1701      C1703   1.401       .  A
C1701      C1702   1.402       .  A
C1702      H1709   1.084       .  S
C1703      C1704   1.396       .  A
C1703      H1710   1.084       .  S
C1704      C1705   1.406       .  A
C1704      H1711   1.083       .  S
C1705      C1706   1.404       .  A
C1706      H1712   1.084       .  S
C1713      C1714   1.407       .  A
C1713      C1718   1.407       .  A
C1714      C1715   1.397       .  A
C1714      H1723   1.083       .  S
C1715      C1716   1.402       .  A
C1715      H1724   1.084       .  S
C1716      C1722   1.405       .  A
C1716      C1717   1.414       .  A
C1717      C1719   1.401       .  A
C1717      C1718   1.405       .  A
C1718      H1725   1.084       .  S
C1719      C1720   1.397       .  A
C1719      H1726   1.084       .  S
C1720      C1721   1.407       .  A
C1720      H1727   1.083       .  S
C1721      C1722   1.407       .  A
C1722      H1728   1.084       .  S
C1729      C1730   1.406       .  A
C1729      C1734   1.407       .  A
C1730      C1731   1.397       .  A
C1730      H1739   1.083       .  S
C1731      C1732   1.402       .  A
C1731      H1740   1.084       .  S
C1732      C1738   1.403       .  A
C1732      C1733   1.413       .  A
C1733      C1735   1.402       .  A
C1733      C1734   1.403       .  A
C1734      H1741   1.084       .  S
C1735      C1736   1.397       .  A
C1735      H1742   1.084       .  S
C1736      C1737   1.406       .  A
C1736      H1743   1.083       .  S
C1737      C1738   1.407       .  A
C1738      H1744   1.084       .  S
C1745      C1746   1.407       .  A
C1745      C1750   1.408       .  A
C1746      C1747   1.398       .  A
C1746      H1755   1.083       .  S
C1747      C1748   1.402       .  A
C1747      H1756   1.084       .  S
C1748      C1754   1.406       .  A
C1748      C1749   1.413       .  A
C1749      C1751   1.402       .  A
C1749      C1750   1.406       .  A
C1750      H1757   1.084       .  S
C1751      C1752   1.398       .  A
C1751      H1758   1.084       .  S
C1752      C1753   1.407       .  A
C1752      H1759   1.083       .  S
C1753      C1754   1.408       .  A
C1754      H1760   1.084       .  S
C1761      C1762   1.405       .  A
C1761      C1766   1.403       .  A
C1762      C1763   1.395       .  A
C1762      H1771   1.083       .  S
C1763      C1764   1.401       .  A
C1763      H1772   1.084       .  S
C1764      C1770   1.402       .  A
C1764      C1765   1.415       .  A
C1765      C1767   1.401       .  A
C1765      C1766   1.402       .  A
C1766      H1773   1.084       .  S
C1767      C1768   1.395       .  A
C1767      H1774   1.084       .  S
C1768      C1769   1.406       .  A
C1768      H1775   1.083       .  S
C1769      C1770   1.403       .  A
C1770      H1776   1.084       .  S
C1777      C1778   1.407       .  A
C1777      C1782   1.408       .  A
C1778      C1779   1.398       .  A
C1778      H1787   1.083       .  S
C1779      C1780   1.402       .  A
C1779      H1788   1.084       .  S
C1780      C1786   1.406       .  A
C1780      C1781   1.414       .  A
C1781      C1783   1.402       .  A
C1781      C1782   1.406       .  A
C1782      H1789   1.084       .  S
C1783      C1784   1.398       .  A
C1783      H1790   1.084       .  S
C1784      C1785   1.407       .  A
C1784      H1791   1.083       .  S
C1785      C1786   1.408       .  A
C1786      H1792   1.084       .  S
C1793      C1794   1.406       .  A
C1793      C1798   1.404       .  A
C1794      C1795   1.395       .  A
C1794      H1803   1.083       .  S
C1795      C1796   1.401       .  A
C1795      H1804   1.084       .  S
C1796      C1802   1.402       .  A
C1796      C1797   1.415       .  A
C1797      C1799   1.401       .  A
C1797      C1798   1.402       .  A
C1798      H1805   1.084       .  S
C1799      C1800   1.395       .  A
C1799      H1806   1.084       .  S
C1800      C1801   1.406       .  A
C1800      H1807   1.083       .  S
C1801      C1802   1.404       .  A
C1802      H1808   1.084       .  S
C1809      C1810   1.408       .  A
C1809      C1814   1.407       .  A
C1810      C1811   1.397       .  A
C1810      H1819   1.083       .  S
C1811      C1812   1.401       .  A
C1811      H1820   1.084       .  S
C1812      C1818   1.407       .  A
C1812      C1813   1.414       .  A
C1813      C1815   1.401       .  A
C1813      C1814   1.407       .  A
C1814      H1821   1.084       .  S
C1815      C1816   1.397       .  A
C1815      H1822   1.084       .  S
C1816      C1817   1.408       .  A
C1816      H1823   1.083       .  S
C1817      C1818   1.407       .  A
C1818      H1824   1.084       .  S
