geometry optimzed in LAMMPS
_audit_creation_date              2020-11-30 
_audit_creation_method            'lammps2cif' 
_symmetry_space_group_name_H-M    'P1' 
_symmetry_Int_Tables_number       1 
_symmetry_cell_setting            triclinic 
loop_ 
_symmetry_equiv_pos_as_xyz 
  x,y,z 
_cell_length_a                    29.99965987121997 
_cell_length_b                    57.26165850796088 
_cell_length_c                    31.960728132996216 
_cell_angle_alpha                 90.21543714187676 
_cell_angle_beta                  90.01093841651657 
_cell_angle_gamma                 89.98034127303228 
loop_ 
_atom_site_label 
_atom_site_type_symbol 
_atom_site_fract_x 
_atom_site_fract_y 
_atom_site_fract_z 
_atom_site_charge 
N1          N  0.79990148  0.83996631  0.20542013    -0.06970
N2          N  0.80982404  0.82145636  0.22880746    -0.59090
N3          N  0.82540849  0.89525268  0.17662678    -0.06650
N4          N  0.85617386  0.91110623  0.18096990    -0.61220
N5          N  0.79828381  0.89496240  0.20870896    -0.06250
N6          N  0.81122930  0.91128056  0.23623440    -0.59060
N7          N  0.82986908  0.84235738  0.17591616    -0.05920
N8          N  0.86033108  0.82597206  0.17819262    -0.61570
C9          C  0.84801958  0.81294038  0.21111426     0.95210
C10         C  0.84782957  0.92138032  0.21786450     0.94990
N11         N  0.80242649  0.89540731  0.04759503    -0.07150
N12         N  0.81416822  0.91254196  0.02168895    -0.59670
N13         N  0.83154312  0.84331783  0.08237935    -0.05270
N14         N  0.86335853  0.82803341  0.08285359    -0.60920
N15         N  0.80621981  0.84087210  0.04934382    -0.07180
N16         N  0.82188936  0.82340975  0.02576279    -0.59930
N17         N  0.82824155  0.89586345  0.08080229    -0.04920
N18         N  0.85737590  0.91285028  0.07858386    -0.61010
Mn19       Mn  0.82823399  0.86943646  0.12886638     1.18440
C20         C  0.84838823  0.92345312  0.04212399     0.97290
C21         C  0.85802204  0.81566400  0.04795456     0.97950
N22         N  0.69046345  0.89233655  0.20592482    -0.07200
N23         N  0.67347704  0.90112364  0.24066715    -0.63510
N24         N  0.66339749  0.84080190  0.17080220    -0.06010
N25         N  0.63122929  0.82554774  0.17484351    -0.64190
N26         N  0.69140872  0.83956430  0.20249060    -0.06710
N27         N  0.67782040  0.82318866  0.22910631    -0.63780
N28         N  0.66050973  0.89285365  0.17543770    -0.05610
N29         N  0.62274229  0.90166631  0.19008503    -0.64470
Mn30       Mn  0.74524210  0.86661960  0.20721648     1.10660
C31         C  0.63152957  0.90723168  0.23049623     0.98510
C32         C  0.64045712  0.81436451  0.21060233     0.98590
N33         N  0.69807180  0.83918981  0.04380219    -0.06720
N34         N  0.68920638  0.82179442  0.01724207    -0.62090
N35         N  0.66405205  0.89294680  0.07017948    -0.06040
N36         N  0.62738706  0.90218576  0.05425290    -0.58820
N37         N  0.69544858  0.89219175  0.04112442    -0.07350
N38         N  0.68042177  0.90115435  0.00578409    -0.61660
N39         N  0.66699362  0.84031036  0.07290894    -0.06330
N40         N  0.63709417  0.82384389  0.06711830    -0.58840
Mn41       Mn  0.75092616  0.86678861  0.04377291     1.20190
Mn42       Mn  0.66359953  0.86734453  0.12228640     1.10090
Cl43       Cl  0.74616064  0.86786531  0.12553170    -0.86810
C44         C  0.65076561  0.81243896  0.03243846     0.95520
C45         C  0.63825845  0.90777358  0.01444586     0.95320
C46         C  0.99743761  0.72708458  0.24554197    -0.00290
C47         C  0.99411824  0.75065227  0.23958983    -0.00290
N48         N  0.18749622  0.84172307  0.04683973    -0.06970
N49         N  0.17838090  0.82421320  0.02089891    -0.59090
N50         N  0.15738034  0.89610412  0.07701483    -0.06650
N51         N  0.12780987  0.91283192  0.07285440    -0.61220
N52         N  0.18602028  0.89602445  0.04582510    -0.06250
N53         N  0.17578408  0.91300522  0.01921797    -0.59060
N54         N  0.15703796  0.84292426  0.07630114    -0.05920
N55         N  0.12716997  0.82636403  0.07173793    -0.61570
C56         C  0.14069284  0.81482287  0.03736555     0.95210
C57         C  0.13959945  0.92341357  0.03712634     0.94990
N58         N  0.18330934  0.89507435  0.20614408    -0.07150
N59         N  0.17267816  0.91125874  0.23424296    -0.59670
N60         N  0.15524715  0.84234389  0.17104466    -0.05270
N61         N  0.12589968  0.82540200  0.17255757    -0.60920
N62         N  0.18400395  0.84088672  0.20190135    -0.07180
N63         N  0.17392069  0.82277655  0.22596980    -0.59930
N64         N  0.15518905  0.89575459  0.17458081    -0.04920
N65         N  0.12533032  0.91234408  0.18012341    -0.61010
Mn66       Mn  0.15575235  0.86952359  0.12470449     1.18440
C67         C  0.13667290  0.92199731  0.21714660     0.97290
C68         C  0.13783232  0.81324003  0.20653705     0.97950
N69         N  0.29282701  0.89565775  0.04492732    -0.07200
N70         N  0.30833881  0.90447313  0.00977252    -0.63510
N71         N  0.32488295  0.84479940  0.07969199    -0.06010
N72         N  0.35699160  0.82930530  0.07732993    -0.64190
N73         N  0.29622237  0.84237680  0.04881209    -0.06710
N74         N  0.30953640  0.82500556  0.02389287    -0.63780
N75         N  0.32305006  0.89734146  0.07490134    -0.05610
N76         N  0.35967156  0.90708544  0.05963187    -0.64470
Mn77       Mn  0.24036622  0.86879693  0.04509967     1.10660
C78         C  0.34976388  0.91188276  0.01916699     0.98510
C79         C  0.34730235  0.81693104  0.04292545     0.98590
N80         N  0.29194882  0.84198607  0.20348017    -0.06720
N81         N  0.30265279  0.82416368  0.22800792    -0.62090
N82         N  0.32028762  0.89712504  0.17963861    -0.06040
N83         N  0.35631651  0.90714735  0.19543517    -0.58820
N84         N  0.28973566  0.89507313  0.20921373    -0.07350
N85         N  0.30472448  0.90388382  0.24477479    -0.61660
N86         N  0.32214560  0.84434116  0.17396242    -0.06330
N87         N  0.35288383  0.82812108  0.17677727    -0.58840
Mn88       Mn  0.23701102  0.86811823  0.20664733     1.20190
Mn89       Mn  0.32247607  0.87170131  0.12714398     1.10090
Cl90       Cl  0.23906359  0.86983211  0.12586853    -0.86810
C91         C  0.34044741  0.81555527  0.21011135     0.95520
C92         C  0.34602171  0.91173728  0.23587753     0.95320
C93         C  0.99843701  0.72750393  0.50225309    -0.00290
C94         C  0.99864205  0.75106867  0.00788575    -0.00290
N95         N  0.78642578  0.65228378  0.46044960    -0.06970
N96         N  0.81883236  0.65794973  0.48670199    -0.59090
N97         N  0.68382101  0.66077478  0.42722672    -0.06650
N98         N  0.64910931  0.67448058  0.43139232    -0.61220
N99         N  0.68481057  0.64494010  0.45676487    -0.06250
N100        N  0.65091809  0.64800030  0.48283100    -0.59060
N101        N  0.78403216  0.66757725  0.43012727    -0.05920
N102        N  0.81378175  0.68415514  0.43510657    -0.61570
C103        C  0.83495363  0.67814677  0.47066850     0.95210
C104        C  0.62879542  0.66634729  0.46581588     0.94990
N105        N  0.68477007  0.64701483  0.30230667    -0.07150
N106        N  0.65264044  0.65308618  0.27561537    -0.59670
N107        N  0.78545046  0.66739190  0.33172943    -0.05270
N108        N  0.81670801  0.68334525  0.32797447    -0.60920
N109        N  0.78704409  0.65240179  0.30050819    -0.07180
N110        N  0.82024921  0.65767247  0.27506608    -0.59930
N111        N  0.68592231  0.66204631  0.33333420    -0.04920
N112        N  0.65533741  0.67800258  0.32941842    -0.61010
Mn113      Mn  0.73544899  0.66460493  0.38062313     1.18440
C114        C  0.63443410  0.67251117  0.29383006     0.97290
C115        C  0.83793404  0.67723964  0.29235331     0.97950
N116        N  0.70178564  0.58932605  0.45484187    -0.07200
N117        N  0.66729274  0.58263771  0.47768201    -0.63510
N118        N  0.81121388  0.58296565  0.43154076    -0.06010
N119        N  0.84323578  0.56936672  0.44704912    -0.64190
N120        N  0.80117113  0.59919807  0.45929127    -0.06710
N121        N  0.82633270  0.59749809  0.49247562    -0.63780
N122        N  0.71145043  0.57323668  0.42673991    -0.05610
N123        N  0.68363805  0.55556180  0.42960970    -0.64470
Mn124      Mn  0.74274003  0.62133143  0.45896629     1.10660
C125        C  0.65629014  0.56145466  0.46148691     0.98510
C126        C  0.85251347  0.57892390  0.48534620     0.98590
N127        N  0.80011274  0.59892611  0.29703915    -0.06720
N128        N  0.82796070  0.59802912  0.26537480    -0.62090
N129        N  0.71077554  0.57375297  0.33046081    -0.06040
N130        N  0.68317392  0.55601939  0.32821213    -0.58820
N131        N  0.69974789  0.58987503  0.30298657    -0.07350
N132        N  0.66425085  0.58298125  0.28134648    -0.61660
N133        N  0.81074150  0.58335851  0.32571760    -0.06330
N134        N  0.84595212  0.57110841  0.31302306    -0.58840
Mn135      Mn  0.74170221  0.62191398  0.29903259     1.20190
Mn136      Mn  0.76300342  0.57757770  0.37849478     1.10090
Cl137      Cl  0.74600647  0.62104312  0.37908958    -0.86810
C138        C  0.85608401  0.58063784  0.27520819     0.95520
C139        C  0.65418007  0.56168522  0.29775944     0.95320
N140        N  0.20644891  0.65098447  0.30199894    -0.06970
N141        N  0.17379820  0.65760829  0.27681316    -0.59090
N142        N  0.31184449  0.65546452  0.33525668    -0.06650
N143        N  0.34291216  0.67093703  0.32901100    -0.61220
N144        N  0.30711268  0.64180540  0.30271229    -0.06250
N145        N  0.33394862  0.64880017  0.27216995    -0.59060
N146        N  0.21136525  0.66605123  0.33259751    -0.05920
N147        N  0.18262517  0.68333679  0.32890261    -0.61570
C148        C  0.15938847  0.67802913  0.29385256     0.95210
C149        C  0.35656624  0.66696822  0.28970585     0.94990
N150        N  0.30654206  0.64220053  0.46102399    -0.07150
N151        N  0.33364799  0.64943620  0.49138642    -0.59670
N152        N  0.21268577  0.66554622  0.42966722    -0.05270
N153        N  0.18470535  0.68295166  0.43222877    -0.60920
N154        N  0.20648861  0.65079108  0.46031719    -0.07180
N155        N  0.17325196  0.65780196  0.48437485    -0.59930
N156        N  0.31129541  0.65575021  0.42838050    -0.04920
N157        N  0.34215217  0.67142162  0.43468082    -0.61010
Mn158      Mn  0.26153612  0.66062822  0.38144308     1.18440
C159        C  0.35615862  0.66765726  0.47386213     0.97290
C160        C  0.16037476  0.67812141  0.46633971     0.97950
N161        N  0.28704120  0.58670097  0.30591045    -0.07200
N162        N  0.32216084  0.58020769  0.28382737    -0.63510
N163        N  0.17706717  0.58193472  0.32778297    -0.06010
N164        N  0.14332483  0.56964877  0.31166552    -0.64190
N165        N  0.18884276  0.59810870  0.30075531    -0.06710
N166        N  0.16388471  0.59747693  0.26736868    -0.63780
N167        N  0.27677164  0.57051942  0.33353498    -0.05610
N168        N  0.30483838  0.55287346  0.33088748    -0.64470
Mn169      Mn  0.24797285  0.61921366  0.30178245     1.10660
C170        C  0.33255266  0.55892758  0.29946463     0.98510
C171        C  0.13551273  0.57982861  0.27361409     0.98590
N172        N  0.18645530  0.59777538  0.46244113    -0.06720
N173        N  0.15817963  0.59741278  0.49381902    -0.62090
N174        N  0.27626720  0.57053824  0.43046496    -0.06040
N175        N  0.30566487  0.55344074  0.43236034    -0.58820
N176        N  0.28556728  0.58664968  0.45878805    -0.07350
N177        N  0.32101967  0.58062581  0.48077541    -0.61660
N178        N  0.17595021  0.58197649  0.43389054    -0.06330
N179        N  0.14020047  0.57015530  0.44643159    -0.58840
Mn180      Mn  0.24679418  0.61914187  0.46215883     1.20190
Mn181      Mn  0.22454418  0.57520254  0.38147013     1.10090
Cl182      Cl  0.24465843  0.61811692  0.38186053    -0.86810
C183        C  0.12969783  0.58020402  0.48390077     0.95520
C184        C  0.33272957  0.55975933  0.46419212     0.95320
C185        C  0.48977297  0.75813512  0.25527314    -0.00290
C186        C  0.48870815  0.73419811  0.25445952    -0.00290
C187        C  0.49484239  0.73171709  0.51449809    -0.00290
C188        C  0.49983254  0.75574027  0.01558352    -0.00290
C189        C  0.49269296  0.91281585  0.39702622    -0.00290
C190        C  0.49140877  0.91262675  0.35420385    -0.00290
C191        C  0.99514773  0.56953481  0.15126449    -0.00290
C192        C  0.99067753  0.56871782  0.10811898    -0.00290
C193        C  0.49581633  0.50726852  0.98936555    -0.00290
C194        C  0.49465139  0.48375440  0.99822422    -0.00290
C195        C  0.49381156  0.50742738  0.26223495    -0.00290
C196        C  0.49344661  0.48378360  0.25575091    -0.00290
N197        N  0.29850506  0.39673420  0.04577008    -0.06970
N198        N  0.30961505  0.41408577  0.02001380    -0.59090
N199        N  0.32978897  0.34356346  0.07621883    -0.06650
N200        N  0.36008363  0.32711776  0.07329428    -0.61220
N201        N  0.30016969  0.34175976  0.04621617    -0.06250
N202        N  0.31022515  0.32362956  0.02170194    -0.59060
N203        N  0.32636511  0.39640867  0.07738107    -0.05920
N204        N  0.35631015  0.41281967  0.07419530    -0.61570
C205        C  0.34607111  0.42405691  0.03871538     0.95210
C206        C  0.34804793  0.31474540  0.03934695     0.94990
N207        N  0.30363098  0.34067244  0.20211068    -0.07150
N208        N  0.31907454  0.32352305  0.22632869    -0.59670
N209        N  0.32775364  0.39589250  0.17386551    -0.05270
N210        N  0.35732295  0.41260316  0.17818205    -0.60920
N211        N  0.30075821  0.39504808  0.20622979    -0.07180
N212        N  0.31180964  0.41165443  0.23352704    -0.59930
N213        N  0.33048099  0.34337988  0.17020577    -0.04920
N214        N  0.36325776  0.32857355  0.17131051    -0.61010
Mn215      Mn  0.32826172  0.37006521  0.12441717     1.18440
C216        C  0.35661329  0.31609469  0.20579191     0.97290
C217        C  0.34739139  0.42240879  0.21528058     0.97950
N218        N  0.19224965  0.34147268  0.04890138    -0.07200
N219        N  0.18248040  0.32326901  0.02462781    -0.63510
N220        N  0.16129287  0.39584643  0.07590822    -0.06010
N221        N  0.12427254  0.40557088  0.06154376    -0.64190
N222        N  0.19117841  0.39470693  0.04549888    -0.06710
N223        N  0.17489830  0.40396848  0.01092273    -0.63780
N224        N  0.16276899  0.34318680  0.07930430    -0.05610
N225        N  0.13317292  0.32635171  0.07687725    -0.64470
Mn226      Mn  0.24569230  0.36858196  0.04494125     1.10660
C227        C  0.14543723  0.31407834  0.04290425     0.98510
C228        C  0.13352369  0.41112639  0.02131898     0.98590
N229        N  0.19388445  0.39302107  0.21109209    -0.06720
N230        N  0.17858165  0.40112131  0.24709665    -0.62090
N231        N  0.16396392  0.34298096  0.17496823    -0.06040
N232        N  0.13180023  0.32778866  0.17855076    -0.58820
N233        N  0.19411157  0.34003732  0.20437747    -0.07350
N234        N  0.18197925  0.32236862  0.22901170    -0.61660
N235        N  0.16303011  0.39495378  0.18164894    -0.06330
N236        N  0.12632063  0.40402834  0.19811756    -0.58840
Mn237      Mn  0.24845609  0.36691062  0.20763555     1.20190
Mn238      Mn  0.16275122  0.37009037  0.12786784     1.10090
Cl239      Cl  0.24566249  0.36930955  0.12631170    -0.86810
C240        C  0.13666566  0.40822432  0.23871115     0.95520
C241        C  0.14271392  0.31482187  0.21189582     0.95320
N242        N  0.68528377  0.39596466  0.20788949    -0.06970
N243        N  0.67447609  0.41360870  0.23300870    -0.59090
N244        N  0.66029038  0.34147283  0.17890028    -0.06650
N245        N  0.63074719  0.32481664  0.18412924    -0.61220
N246        N  0.68956719  0.34171175  0.20945703    -0.06250
N247        N  0.67984138  0.32506557  0.23684202    -0.59060
N248        N  0.65678490  0.39470384  0.17670464    -0.05920
N249        N  0.62665590  0.41126177  0.17935249    -0.61570
C250        C  0.63797977  0.42302495  0.21422798     0.95210
C251        C  0.64312487  0.31463231  0.22008224     0.94990
N252        N  0.68987936  0.33881978  0.05319441    -0.07150
N253        N  0.67983290  0.32131775  0.02749259    -0.59670
N254        N  0.65612950  0.39291845  0.07992974    -0.05270
N255        N  0.62514922  0.40893374  0.07500955    -0.60920
N256        N  0.68472596  0.39308711  0.04872879    -0.07180
N257        N  0.67323717  0.40954228  0.02150637    -0.59930
N258        N  0.66057927  0.33981990  0.08369038    -0.04920
N259        N  0.63077513  0.32318965  0.08017125    -0.61010
Mn260      Mn  0.65816597  0.36732968  0.12981328     1.18440
C261        C  0.64300285  0.31171450  0.04537018     0.97290
C262        C  0.63597474  0.41926606  0.03871957     0.97950
N263        N  0.79757222  0.34483925  0.20886206    -0.07200
N264        N  0.80937037  0.32779517  0.23469092    -0.63510
N265        N  0.82242789  0.39947027  0.18059727    -0.06010
N266        N  0.85858410  0.40965334  0.19586489    -0.64190
N267        N  0.79201890  0.39785993  0.21041881    -0.06710
N268        N  0.80716564  0.40727709  0.24544956    -0.63780
N269        N  0.82751185  0.34699069  0.17899233    -0.05610
N270        N  0.85951773  0.33153357  0.18326246    -0.64470
Mn271      Mn  0.74085433  0.37001672  0.21053324     1.10660
C272        C  0.84810734  0.31973896  0.21786785     0.98510
C273        C  0.84845637  0.41494693  0.23608232     0.98590
N274        N  0.79134018  0.39495397  0.04639223    -0.06720
N275        N  0.80479285  0.40407678  0.01072194    -0.62090
N276        N  0.82804101  0.34525619  0.08335011    -0.06040
N277        N  0.86040020  0.32985649  0.08169905    -0.58820
N278        N  0.79874604  0.34175069  0.05329110    -0.07350
N279        N  0.81173820  0.32369131  0.02982333    -0.61660
N280        N  0.82216991  0.39771473  0.07556292    -0.06330
N281        N  0.85720937  0.40843715  0.05918417    -0.58840
Mn282      Mn  0.74098585  0.36696354  0.04894087     1.20190
Mn283      Mn  0.82493953  0.37309181  0.12953259     1.10090
Cl284      Cl  0.74144625  0.36957706  0.12967028    -0.86810
C285        C  0.84565290  0.41273533  0.01889872     0.95520
C286        C  0.85034548  0.31650357  0.04847551     0.95320
C287        C  0.49783747  0.25344499  0.25598744    -0.00290
C288        C  0.49611199  0.23013266  0.26423017    -0.00290
C289        C  0.49458055  0.25130993  0.01808603    -0.00290
C290        C  0.49517738  0.22764546  0.51097176    -0.00290
N291        N  0.70386971  0.15207269  0.30097087    -0.06970
N292        N  0.67011842  0.15929683  0.27775374    -0.59090
N293        N  0.80920088  0.15654975  0.33246115    -0.06650
N294        N  0.83926096  0.17257274  0.32642401    -0.61220
N295        N  0.80412650  0.14340794  0.29918615    -0.06250
N296        N  0.83004905  0.15122694  0.26855235    -0.59060
N297        N  0.71031338  0.16648874  0.33226450    -0.05920
N298        N  0.68199602  0.18382139  0.33119753    -0.61570
C299        C  0.65724276  0.17936151  0.29711216     0.95210
C300        C  0.85170288  0.16954263  0.28666213     0.94990
N301        N  0.80715397  0.14213741  0.45718969    -0.07150
N302        N  0.83607716  0.14921130  0.48628147    -0.59670
N303        N  0.71022372  0.16590211  0.42830661    -0.05270
N304        N  0.68020608  0.18261382  0.43112733    -0.60920
N305        N  0.70544609  0.15071121  0.45854239    -0.07180
N306        N  0.67137998  0.15671586  0.48261874    -0.59930
N307        N  0.81000005  0.15593891  0.42481765    -0.04920
N308        N  0.84093631  0.17155983  0.42979245    -0.61010
Mn309      Mn  0.75976283  0.16108900  0.37951777     1.18440
C310        C  0.85708472  0.16774381  0.46789211     0.97290
C311        C  0.65616019  0.17683536  0.46522751     0.97950
N312        N  0.78487140  0.08833799  0.29941809    -0.07200
N313        N  0.82095740  0.08322747  0.27749240    -0.63510
N314        N  0.67504136  0.08275146  0.32357202    -0.06010
N315        N  0.63950524  0.07119945  0.30917949    -0.64190
N316        N  0.68581403  0.09919313  0.29667666    -0.06710
N317        N  0.65829886  0.09959119  0.26497529    -0.63780
N318        N  0.77629363  0.07178513  0.32690413    -0.05610
N319        N  0.80679836  0.05520872  0.32426526    -0.64470
Mn320      Mn  0.74504433  0.12048622  0.29772242     1.10660
C321        C  0.83393806  0.06241376  0.29307907     0.98510
C322        C  0.62922125  0.08243465  0.27269838     0.98590
N323        N  0.68803714  0.09764054  0.45799887    -0.06720
N324        N  0.66099644  0.09761064  0.48997753    -0.62090
N325        N  0.77534377  0.07029225  0.42469441    -0.06040
N326        N  0.80220825  0.05217979  0.42686263    -0.58820
N327        N  0.78627702  0.08602052  0.45320164    -0.07350
N328        N  0.82082369  0.07864248  0.47536828    -0.61660
N329        N  0.67599890  0.08202486  0.42971977    -0.06330
N330        N  0.64002534  0.07065809  0.44345371    -0.58840
Mn331      Mn  0.74755376  0.11888989  0.45822223     1.20190
Mn332      Mn  0.72383784  0.07565556  0.37611193     1.10090
Cl333      Cl  0.74383657  0.11880459  0.37795036    -0.86810
C334        C  0.63087832  0.08112349  0.48106483     0.95520
C335        C  0.83036863  0.05745712  0.45839878     0.95320
N336        N  0.28591206  0.15275519  0.45324492    -0.06970
N337        N  0.31979253  0.15885032  0.47748604    -0.59090
N338        N  0.18233459  0.15961655  0.42172027    -0.06650
N339        N  0.14905846  0.17400994  0.42690505    -0.61220
N340        N  0.18416602  0.14428257  0.45199940    -0.06250
N341        N  0.15192681  0.14848606  0.47946477    -0.59060
N342        N  0.28164651  0.16776645  0.42260155    -0.05920
N343        N  0.31148050  0.18442091  0.42551156    -0.61570
C344        C  0.33529251  0.17879051  0.45966978     0.95210
C345        C  0.13004779  0.16707819  0.46270354     0.94990
N346        N  0.18194287  0.14484138  0.29765198    -0.07150
N347        N  0.14824299  0.14874944  0.27159500    -0.59670
N348        N  0.28055891  0.16810927  0.32496333    -0.05270
N349        N  0.31106392  0.18444953  0.32187260    -0.60920
N350        N  0.28386898  0.15302096  0.29411285    -0.07180
N351        N  0.31759854  0.15865532  0.26940354    -0.59930
N352        N  0.18101561  0.16017538  0.32818646    -0.04920
N353        N  0.14706721  0.17434189  0.32469095    -0.61010
Mn354      Mn  0.23188026  0.16407923  0.37440259     1.18440
C355        C  0.12654938  0.16703355  0.28986789     0.97290
C356        C  0.33357710  0.17858184  0.28690482     0.97950
N357        N  0.20320434  0.08851397  0.45050472    -0.07200
N358        N  0.16787367  0.08154703  0.47205651    -0.63510
N359        N  0.31387442  0.08386455  0.42701630    -0.06010
N360        N  0.34862302  0.07160006  0.44088207    -0.64190
N361        N  0.30275274  0.09961180  0.45537034    -0.06710
N362        N  0.32954924  0.09885400  0.48773512    -0.63780
N363        N  0.21411827  0.07253688  0.42257581    -0.05610
N364        N  0.18653017  0.05472515  0.42441158    -0.64470
Mn365      Mn  0.24312661  0.12118624  0.45427422     1.10660
C366        C  0.15795926  0.06024372  0.45542382     0.98510
C367        C  0.35796196  0.08143002  0.47893501     0.98590
N368        N  0.30065953  0.09987750  0.29264783    -0.06720
N369        N  0.32797893  0.09952070  0.26066230    -0.62090
N370        N  0.21265363  0.07303588  0.32652599    -0.06040
N371        N  0.18402217  0.05564363  0.32531131    -0.58820
N372        N  0.20158458  0.08911340  0.29898115    -0.07350
N373        N  0.16537663  0.08266195  0.27826714    -0.61660
N374        N  0.31229661  0.08429758  0.32097170    -0.06330
N375        N  0.34784512  0.07255503  0.30760445    -0.58840
Mn376      Mn  0.24111607  0.12155127  0.29433052     1.20190
Mn377      Mn  0.26533191  0.07762363  0.37416743     1.10090
Cl378      Cl  0.24583000  0.12077755  0.37427896    -0.86810
C379        C  0.35720284  0.08263054  0.27007241     0.95520
C380        C  0.15476805  0.06166194  0.29510477     0.95320
C381        C  0.99186680  0.25582449  0.24729651    -0.00290
C382        C  0.98935024  0.23191457  0.24583102    -0.00290
C383        C  0.99753457  0.25240065  0.02752311    -0.00290
C384        C  0.99415527  0.22851555  0.52661812    -0.00290
C385        C  0.99177230  0.41592274  0.35751281    -0.00290
C386        C  0.99056352  0.41800868  0.40020322    -0.00290
C387        C  0.49367322  0.06427603  0.10428747    -0.00290
C388        C  0.49378912  0.06495886  0.14742295    -0.00290
C389        C  0.99460880  0.00718211  0.48872415    -0.00290
C390        C  0.99377001  0.98330735  0.99344797    -0.00290
C391        C  0.99368994  0.00715660  0.26949609    -0.00290
C392        C  0.99440341  0.98325684  0.26475720    -0.00290
C393        C  0.10419737  0.02899784  0.31278173    -0.27170
C394        C  0.11395412  0.04777894  0.28610963    -0.15240
C395        C  0.08405846  0.05296062  0.25320099     0.35390
C396        C  0.04589279  0.03893998  0.24758247    -0.26620
C397        C  0.03629164  0.02040350  0.27484388    -0.15850
C398        C  0.06533050  0.01582359  0.30827755     0.36470
N399        N  0.05457786  0.99842063  0.33872092    -0.90110
H400        H  0.12627786  0.02479918  0.33824969     0.17590
H401        H  0.02294087  0.04272570  0.22231294     0.17580
N402        N  0.09219121  0.07229845  0.22572353    -0.89130
H403        H  0.05198543  0.00667170  0.36781809     0.34960
H404        H  0.08103306  0.98655422  0.34018511     0.40050
H405        H  0.08766908  0.08759789  0.24316635     0.39670
H406        H  0.06831382  0.07276933  0.20190299     0.34560
C407        C  0.08368919  0.05581623  0.48987525    -0.27170
C408        C  0.11790371  0.04591597  0.46577624    -0.15240
C409        C  0.11179821  0.02287107  0.45020941     0.35390
C410        C  0.07133088  0.01132529  0.45649835    -0.26620
C411        C  0.03726234  0.02082915  0.48149573    -0.15850
C412        C  0.04396677  0.04358357  0.49808429     0.36470
N413        N  0.01067148  0.05463276  0.02329300    -0.90110
H414        H  0.08744791  0.07334558  0.50227015     0.17590
H415        H  0.06685469  0.99462610  0.44131798     0.17580
N416        N  0.14637826  0.01011741  0.42929282    -0.89130
H417        H  0.00131102  0.07021140  0.00876822     0.34960
H418        H  0.02489579  0.05879294  0.05225153     0.40050
H419        H  0.17454391  0.00978435  0.44854531     0.39670
H420        H  0.15421355  0.01822222  0.40116011     0.34560
C421        C  0.43178593  0.04933835  0.05856751    -0.27170
C422        C  0.45259009  0.06843215  0.07848146    -0.15240
C423        C  0.44175968  0.09123338  0.06449825     0.35390
C424        C  0.41335477  0.09413169  0.53032679    -0.26620
C425        C  0.39342005  0.07518150  0.50957602    -0.15850
C426        C  0.40208213  0.05234306  0.02467119     0.36470
N427        N  0.38061424  0.03193339  0.00788310    -0.90110
H428        H  0.43912521  0.03180126  0.06901406     0.17590
H429        H  0.40591503  0.11180906  0.52038937     0.17580
N430        N  0.45814834  0.11206271  0.08434159    -0.89130
H431        H  0.40528039  0.02142575  0.99440229     0.34960
H432        H  0.35814022  0.03605779  0.48422034     0.40050
H433        H  0.47581743  0.10833384  0.11141427     0.39670
H434        H  0.47963948  0.12040770  0.56353093     0.34560
C435        C  0.39597994  0.05515724  0.22139831    -0.27170
C436        C  0.39407230  0.07709867  0.24124805    -0.15240
C437        C  0.42038542  0.09554506  0.22555163     0.35390
C438        C  0.44798934  0.09161950  0.19129461    -0.26620
C439        C  0.45264792  0.06942044  0.17287934    -0.15850
C440        C  0.42511232  0.05111733  0.18724110     0.36470
N441        N  0.42549000  0.02888874  0.16624925    -0.90110
H442        H  0.37374480  0.04142433  0.23168739     0.17590
H443        H  0.46779023  0.10614268  0.18078365     0.17580
N444        N  0.42120923  0.11844109  0.24435110    -0.89130
H445        H  0.40231932  0.01760041  0.17986828     0.34960
H446        H  0.45668347  0.02127205  0.17058343     0.40050
H447        H  0.40457217  0.11901393  0.27300139     0.39670
H448        H  0.40523272  0.12997584  0.22396393     0.34560
C449        C  0.02345454  0.20309147  0.29258866    -0.27170
C450        C  0.02775258  0.21646581  0.25609787    -0.15240
C451        C  0.06257534  0.21131896  0.22786167     0.35390
C452        C  0.09294376  0.19333604  0.23726764    -0.26620
C453        C  0.08829641  0.18013334  0.27389983    -0.15850
C454        C  0.05265031  0.18479280  0.30142988     0.36470
N455        N  0.04584614  0.17069269  0.33811454    -0.90110
H456        H  0.99615966  0.20660919  0.31393283     0.17590
H457        H  0.12111547  0.19027928  0.21674329     0.17580
N458        N  0.06693591  0.22394729  0.18955612    -0.89130
H459        H  0.01618916  0.17535165  0.35318890     0.34960
H460        H  0.07131138  0.17434040  0.35939578     0.40050
H461        H  0.06570713  0.21196289  0.16482307     0.39670
H462        H  0.09842683  0.23176279  0.18923309     0.34560
C463        C  0.05133800  0.19714224  0.53935542    -0.27170
C464        C  0.03225276  0.21394517  0.51276090    -0.15240
C465        C  0.04399809  0.21416949  0.47029592     0.35390
C466        C  0.07418090  0.19786143  0.45512651    -0.26620
C467        C  0.09414329  0.18124333  0.48148549    -0.15850
C468        C  0.08242369  0.18090822  0.52424711     0.36470
N469        N  0.10166005  0.16469023  0.55304465    -0.90110
H470        H  0.04257293  0.19661856  0.57208871     0.17590
H471        H  0.08231767  0.19857449  0.42214342     0.17580
N472        N  0.02452729  0.23069496  0.44209135    -0.89130
H473        H  0.13617607  0.16715637  0.55344799     0.34960
H474        H  0.09466547  0.14776052  0.54262105     0.40050
H475        H  0.00820678  0.22143772  0.41834444     0.39670
H476        H  0.05027220  0.24030379  0.42838948     0.34560
C477        C  0.88498253  0.03983433  0.50839852    -0.27170
C478        C  0.87126644  0.04381788  0.46707963    -0.15240
C479        C  0.89750346  0.03493324  0.43386359     0.35390
C480        C  0.93823220  0.02430517  0.44213867    -0.26620
C481        C  0.95178658  0.01995184  0.48313267    -0.15850
C482        C  0.92415386  0.02702797  0.51686740     0.36470
N483        N  0.93494317  0.02065869  0.05917043    -0.90110
H484        H  0.86434738  0.04602566  0.03397609     0.17590
H485        H  0.95878469  0.01852896  0.41616950     0.17580
N486        N  0.88373220  0.03650006  0.39121333    -0.89130
H487        H  0.91085450  0.02698428  0.07996078     0.34960
H488        H  0.96509799  0.02834867  0.06767649     0.40050
H489        H  0.87503894  0.05380480  0.38539056     0.39670
H490        H  0.85557473  0.02601664  0.38704331     0.34560
C491        C  0.87767415  0.03422592  0.25069415    -0.27170
C492        C  0.87642926  0.05087874  0.28280215    -0.15240
C493        C  0.91536224  0.05511939  0.30639903     0.35390
C494        C  0.95100858  0.03948488  0.30319793    -0.26620
C495        C  0.95192360  0.02170944  0.27257040    -0.15850
C496        C  0.91619087  0.02075661  0.24360724     0.36470
N497        N  0.91964280  0.00757086  0.20569311    -0.90110
H498        H  0.84902394  0.03206067  0.23038383     0.17590
H499        H  0.97905822  0.04187484  0.32414831     0.17580
N500        N  0.92010068  0.07502101  0.33367710    -0.89130
H501        H  0.91759108  0.01919956  0.18062669     0.34960
H502        H  0.89198983  0.99649643  0.20385851     0.40050
H503        H  0.89213322  0.08584130  0.33250397     0.39670
H504        H  0.94674494  0.08498816  0.32253582     0.34560
C505        C  0.58070553  0.05394156  0.23248656    -0.27170
C506        C  0.59385864  0.07696043  0.24142819    -0.15240
C507        C  0.57797477  0.09518963  0.21554304     0.35390
C508        C  0.55090483  0.09003844  0.18113227    -0.26620
C509        C  0.53567074  0.06735562  0.17301587    -0.15850
C510        C  0.55142030  0.04901146  0.19870277     0.36470
N511        N  0.53742360  0.02548636  0.19053484    -0.90110
H512        H  0.59364904  0.03982954  0.25141619     0.17590
H513        H  0.53842270  0.10439909  0.16282247     0.17580
N514        N  0.58836095  0.11919290  0.22499303    -0.89130
H515        H  0.55185907  0.01401600  0.21200911     0.34960
H516        H  0.54950915  0.02079575  0.16099427     0.40050
H517        H  0.57348347  0.12328159  0.25368853     0.39670
H518        H  0.57438139  0.13044871  0.20288824     0.34560
C519        C  0.57769916  0.05304815  0.51664080    -0.27170
C520        C  0.59543517  0.07558910  0.51209892    -0.15240
C521        C  0.58334599  0.09292051  0.04168839     0.35390
C522        C  0.55501817  0.08755855  0.07470212    -0.26620
C523        C  0.53550437  0.06555771  0.07873782    -0.15850
C524        C  0.54784793  0.04784701  0.04959060     0.36470
N525        N  0.53179227  0.02433247  0.05318204    -0.90110
H526        H  0.58767541  0.03933695  0.49515347     0.17590
H527        H  0.54593955  0.10160424  0.09536348     0.17580
N528        N  0.59842394  0.11656548  0.03765077    -0.89130
H529        H  0.51050390  0.02110209  0.52798585     0.34960
H530        H  0.51367461  0.02207881  0.08076042     0.40050
H531        H  0.61556279  0.12112058  0.06498779     0.39670
H532        H  0.57046701  0.12738522  0.03512811     0.34560
C533        C  0.90577044  0.18127862  0.52702067    -0.27170
C534        C  0.88726569  0.18518400  0.48736107    -0.15240
C535        C  0.89788275  0.20646110  0.46624136     0.35390
C536        C  0.92889380  0.22156038  0.48311391    -0.26620
C537        C  0.95060957  0.21663501  0.52048367    -0.15850
C538        C  0.93705419  0.19693701  0.54407727     0.36470
N539        N  0.95349178  0.19261002  0.08548289    -0.90110
H540        H  0.89658140  0.16584494  0.54452222     0.17590
H541        H  0.93884027  0.23645928  0.46457079     0.17580
N542        N  0.87931614  0.21341495  0.42682795    -0.89130
H543        H  0.97260710  0.17735219  0.08458957     0.34960
H544        H  0.97371628  0.20628946  0.09581465     0.40050
H545        H  0.84464056  0.21459487  0.42923830     0.39670
H546        H  0.88913288  0.20177831  0.40330509     0.34560
C547        C  0.90669768  0.18255225  0.23297128    -0.27170
C548        C  0.87782682  0.18782633  0.26592732    -0.15240
C549        C  0.87861059  0.21043980  0.28410691     0.35390
C550        C  0.91438655  0.22506669  0.27594874    -0.26620
C551        C  0.94594434  0.21919567  0.24556873    -0.15850
C552        C  0.93971266  0.19856760  0.22134668     0.36470
N553        N  0.96719484  0.19306409  0.18595529    -0.90110
H554        H  0.90489518  0.16570744  0.21750513     0.17590
H555        H  0.91873672  0.24049047  0.29517546     0.17580
N556        N  0.84429838  0.21799644  0.31261118    -0.89130
H557        H  0.98993270  0.18020626  0.19502878     0.34960
H558        H  0.98487555  0.20775013  0.17620164     0.40050
H559        H  0.81442795  0.21863795  0.29579004     0.39670
H560        H  0.85037289  0.23496929  0.32337634     0.34560
C561        C  0.55594842  0.19856780  0.52759450    -0.27170
C562        C  0.53744145  0.21503564  0.50004440    -0.15240
C563        C  0.55874378  0.21902011  0.46148520     0.35390
C564        C  0.59752444  0.20659106  0.45116914    -0.26620
C565        C  0.61597180  0.19006582  0.47868513    -0.15850
C566        C  0.59535103  0.18641882  0.51776417     0.36470
N567        N  0.61478147  0.17078089  0.54772871    -0.90110
H568        H  0.54108166  0.19568420  0.55774912     0.17590
H569        H  0.61286680  0.20973309  0.42104764     0.17580
N570        N  0.54074352  0.23548836  0.43239446    -0.89130
H571        H  0.59503614  0.16975749  0.07458324     0.34960
H572        H  0.64526937  0.17793624  0.55709145     0.40050
H573        H  0.56517598  0.24804908  0.42636196     0.39670
H574        H  0.53419794  0.22665862  0.40439575     0.34560
C575        C  0.43331031  0.22076968  0.46227860    -0.27170
C576        C  0.45316195  0.21521795  0.50052704    -0.15240
C577        C  0.43362072  0.19772713  0.52591582     0.35390
C578        C  0.39552216  0.18600992  0.51159892    -0.26620
C579        C  0.37516853  0.19196233  0.47355234    -0.15850
C580        C  0.39406882  0.21017698  0.44924937     0.36470
N581        N  0.37462409  0.21861707  0.41127595    -0.90110
H582        H  0.44831758  0.23380440  0.44225573     0.17590
H583        H  0.38123765  0.17245402  0.03093439     0.17580
N584        N  0.45016156  0.19179042  0.06660158    -0.89130
H585        H  0.34276298  0.22508504  0.41770035     0.34960
H586        H  0.37281913  0.20500008  0.38963404     0.40050
H587        H  0.47468510  0.20334118  0.07662524     0.39670
H588        H  0.46426952  0.17512255  0.06469454     0.34560
C589        C  0.56673613  0.22484371  0.30295846    -0.27170
C590        C  0.53746547  0.21685329  0.27211971    -0.15240
C591        C  0.54802276  0.19679310  0.24853297     0.35390
C592        C  0.58805000  0.18507189  0.25612757    -0.26620
C593        C  0.61779564  0.19331823  0.28657872    -0.15850
C594        C  0.60762509  0.21396491  0.30931129     0.36470
N595        N  0.63868791  0.22397579  0.33862019    -0.90110
H596        H  0.55794382  0.24003590  0.32152734     0.17590
H597        H  0.59563872  0.16942873  0.23837942     0.17580
N598        N  0.51856205  0.18858242  0.21641656    -0.89130
H599        H  0.62516018  0.23870020  0.35334359     0.34960
H600        H  0.66616502  0.22984285  0.32149740     0.40050
H601        H  0.53604204  0.18841930  0.18811650     0.39670
H602        H  0.50960622  0.17139427  0.22345559     0.34560
C603        C  0.40723331  0.19095868  0.30925464    -0.27170
C604        C  0.37624254  0.18967580  0.27665308    -0.15240
C605        C  0.38474380  0.20146124  0.23864472     0.35390
C606        C  0.42384483  0.21481769  0.23497455    -0.26620
C607        C  0.45373539  0.21693878  0.26867299    -0.15850
C608        C  0.44519199  0.20488061  0.30619300     0.36470
N609        N  0.47470982  0.20723880  0.34143075    -0.90110
H610        H  0.40102126  0.18145407  0.33791184     0.17590
H611        H  0.43087914  0.22363962  0.20577497     0.17580
N612        N  0.35419360  0.20099041  0.20400011    -0.89130
H613        H  0.46372666  0.19713965  0.36659135     0.34960
H614        H  0.47331345  0.22464008  0.35135031     0.40050
H615        H  0.32616241  0.19086644  0.21051363     0.39670
H616        H  0.37046129  0.19293969  0.17886678     0.34560
C617        C  0.90182574  0.43634865  0.97906654    -0.27170
C618        C  0.87918882  0.41524568  0.98510684    -0.15240
C619        C  0.88924508  0.39597004  0.45897309     0.35390
C620        C  0.92370423  0.39771895  0.42929735    -0.26620
C621        C  0.94784357  0.41847411  0.42443303    -0.15850
C622        C  0.93547121  0.43818965  0.44846210     0.36470
N623        N  0.95711430  0.46013075  0.44192012    -0.90110
H624        H  0.89353789  0.45138831  0.99821595     0.17590
H625        H  0.93318833  0.38245551  0.41143075     0.17580
N626        N  0.86516304  0.37443610  0.46351735    -0.89130
H627        H  0.97115730  0.46549269  0.97032465     0.34960
H628        H  0.93280461  0.47234461  0.43356834     0.40050
H629        H  0.87285694  0.36762184  0.99294072     0.39670
H630        H  0.87561018  0.36224455  0.44116332     0.34560
C631        C  0.90576155  0.39535851  0.27823146    -0.27170
C632        C  0.88329393  0.41617505  0.26886720    -0.15240
C633        C  0.89338635  0.43660425  0.29206693     0.35390
C634        C  0.92679198  0.43575660  0.32307944    -0.26620
C635        C  0.95046812  0.41506784  0.33126328    -0.15850
C636        C  0.93905488  0.39452451  0.30907001     0.36470
N637        N  0.96197759  0.37295604  0.31715057    -0.90110
H638        H  0.89731210  0.37958411  0.26109026     0.17590
H639        H  0.93556620  0.45160683  0.33977537     0.17580
N640        N  0.87118228  0.45844938  0.28467433    -0.89130
H641        H  0.95033080  0.35965706  0.29748801     0.34960
H642        H  0.95450226  0.36785004  0.34766147     0.40050
H643        H  0.84739860  0.45695362  0.26097556     0.39670
H644        H  0.89510800  0.47030582  0.27405602     0.34560
C645        C  0.89097558  0.28099025  0.06885696    -0.27170
C646        C  0.87965920  0.29662974  0.03690250    -0.15240
C647        C  0.90522945  0.29638781  0.99988522     0.35390
C648        C  0.94220012  0.28138094  0.99646031    -0.26620
C649        C  0.95591791  0.26721695  0.03016151    -0.15850
C650        C  0.92848186  0.26640062  0.06579952     0.36470
N651        N  0.93943224  0.25130118  0.09974223    -0.90110
H652        H  0.87191143  0.28107454  0.09754806     0.17590
H653        H  0.95992344  0.28098215  0.96714487     0.17580
N654        N  0.89624158  0.31220850  0.96643969    -0.89130
H655        H  0.91233977  0.24018322  0.10479939     0.34960
H656        H  0.94299149  0.26179431  0.12617709     0.40050
H657        H  0.89967324  0.32913646  0.97817281     0.39670
H658        H  0.86323881  0.30981643  0.95685318     0.34560
C659        C  0.90618932  0.30450325  0.26530786    -0.27170
C660        C  0.87567413  0.30024618  0.23291687    -0.15240
C661        C  0.88128708  0.28026863  0.20735526     0.35390
C662        C  0.91903377  0.26623691  0.21248733    -0.26620
C663        C  0.95083564  0.27088726  0.24372020    -0.15850
C664        C  0.94341736  0.28988068  0.27112173     0.36470
N665        N  0.97387177  0.29452979  0.30460636    -0.90110
H666        H  0.90259655  0.31999663  0.28460496     0.17590
H667        H  0.92360389  0.25153503  0.19162200     0.17580
N668        N  0.85011753  0.27414285  0.17493014    -0.89130
H669        H  0.95603959  0.29408434  0.33269610     0.34960
H670        H  0.98637670  0.31142991  0.30079042     0.40050
H671        H  0.82250967  0.28524473  0.17498525     0.39670
H672        H  0.83778611  0.25750454  0.18170114     0.34560
C673        C  0.60985730  0.27566794  0.21487571    -0.27170
C674        C  0.61551593  0.29606506  0.23878921    -0.15240
C675        C  0.58499224  0.30093633  0.27149221     0.35390
C676        C  0.54835999  0.28606144  0.27757765    -0.26620
C677        C  0.54128585  0.26640238  0.25205872    -0.15850
C678        C  0.57306984  0.26084652  0.22091326     0.36470
N679        N  0.56697373  0.24080815  0.19432616    -0.90110
H680        H  0.63250992  0.27224464  0.18913709     0.17590
H681        H  0.52405652  0.29043263  0.30144748     0.17580
N682        N  0.58798354  0.32161157  0.29701147    -0.89130
H683        H  0.59370158  0.23899422  0.17361998     0.34960
H684        H  0.53837651  0.24342973  0.17633188     0.40050
H685        H  0.61628827  0.33138857  0.28996320     0.39670
H686        H  0.59172785  0.31623249  0.32803973     0.34560
C687        C  0.54518276  0.28339218  0.99343305    -0.27170
C688        C  0.53726688  0.26490028  0.02130396    -0.15240
C689        C  0.57012726  0.25962774  0.05158648     0.35390
C690        C  0.60845231  0.27360855  0.05456736    -0.26620
C691        C  0.61465194  0.29298722  0.02857274    -0.15850
C692        C  0.58319945  0.29751893  0.99668723     0.36470
N693        N  0.58695610  0.31714926  0.96896049    -0.90110
H694        H  0.52145029  0.28729914  0.46911674     0.17590
H695        H  0.63195136  0.27053423  0.07974481     0.17580
N696        N  0.56395788  0.24067860  0.08029240    -0.89130
H697        H  0.58866987  0.31057587  0.43844729     0.34960
H698        H  0.61651710  0.32632780  0.97385290     0.40050
H699        H  0.53772875  0.24495494  0.10023202     0.39670
H700        H  0.59219549  0.23845488  0.09899967     0.34560
C701        C  0.08331045  0.43216833  0.28062048    -0.27170
C702        C  0.10237628  0.41030383  0.27202206    -0.15240
C703        C  0.08804019  0.39058112  0.29537232     0.35390
C704        C  0.05523991  0.39338137  0.32634371    -0.26620
C705        C  0.03453874  0.41498325  0.33341571    -0.15850
C706        C  0.04944589  0.43467620  0.31098213     0.36470
N707        N  0.02914240  0.45703896  0.31838004    -0.90110
H708        H  0.09434283  0.44725275  0.26307279     0.17590
H709        H  0.04392795  0.37814954  0.34320649     0.17580
N710        N  0.10454927  0.36732075  0.28774538    -0.89130
H711        H  0.04353422  0.46975121  0.29926987     0.34960
H712        H  0.03616750  0.46184703  0.34927060     0.40050
H713        H  0.12723839  0.36670820  0.26310244     0.39670
H714        H  0.07754198  0.35700198  0.27837728     0.34560
C715        C  0.07872097  0.39351827  0.47306377    -0.27170
C716        C  0.09840411  0.41391461  0.98913814    -0.15240
C717        C  0.08532600  0.43582595  0.97284816     0.35390
C718        C  0.05262347  0.43669318  0.44124731    -0.26620
C719        C  0.03171812  0.41631983  0.42640164    -0.15850
C720        C  0.04538023  0.39455609  0.44229871     0.36470
N721        N  0.02472515  0.37345645  0.42789599    -0.90110
H722        H  0.08888994  0.37661914  0.48495429     0.17590
H723        H  0.04253824  0.45351160  0.42915271     0.17580
N724        N  0.10395390  0.45744013  0.98774332    -0.89130
H725        H  0.01038423  0.36514183  0.45366057     0.34960
H726        H  0.04964670  0.36251354  0.41603046     0.40050
H727        H  0.12754742  0.45466256  0.01120664     0.39670
H728        H  0.07809610  0.46705854  0.00140188     0.34560
C729        C  0.08368146  0.28783419  0.19222602    -0.27170
C730        C  0.11212093  0.29545016  0.22459657    -0.15240
C731        C  0.10300083  0.28762899  0.26605142     0.35390
C732        C  0.06527862  0.27320207  0.27316011    -0.26620
C733        C  0.03521914  0.26795112  0.24059336    -0.15850
C734        C  0.04428393  0.27605697  0.20040265     0.36470
N735        N  0.01187177  0.27345400  0.16795390    -0.90110
H736        H  0.08952627  0.29300767  0.16008670     0.17590
H737        H  0.05787180  0.26737289  0.30460871     0.17580
N738        N  0.12878675  0.29478213  0.30172711    -0.89130
H739        H  0.02629411  0.26429126  0.14343848     0.34960
H740        H  0.00336003  0.29006809  0.15708094     0.40050
H741        H  0.15515698  0.30556096  0.29333681     0.39670
H742        H  0.14291027  0.27977743  0.31472802     0.34560
C743        C  0.05242078  0.27993674  0.99357647    -0.27170
C744        C  0.04249467  0.26439300  0.02641684    -0.15240
C745        C  0.07530400  0.26138246  0.05811857     0.35390
C746        C  0.11267754  0.27606197  0.05906844    -0.26620
C747        C  0.11911837  0.29361741  0.02924363    -0.15850
C748        C  0.08985336  0.29469721  0.99470417     0.36470
N749        N  0.09504546  0.31154928  0.46183089    -0.90110
H750        H  0.03071681  0.28116696  0.46686794     0.17590
H751        H  0.13504068  0.27504216  0.08567940     0.17580
N752        N  0.07118515  0.24481635  0.09145897    -0.89130
H753        H  0.09915692  0.30231176  0.43381400     0.34960
H754        H  0.12397968  0.32140130  0.96575477     0.40050
H755        H  0.09589125  0.23212536  0.08750106     0.39670
H756        H  0.04031968  0.23656603  0.09180970     0.34560
C757        C  0.38716920  0.27918055  0.05993890    -0.27170
C758        C  0.37424343  0.29376305  0.02689404    -0.15240
C759        C  0.39731890  0.29177295  0.98837518     0.35390
C760        C  0.43466537  0.27681297  0.98556830    -0.26620
C761        C  0.45110091  0.26466477  0.02070518    -0.15850
C762        C  0.42614249  0.26583047  0.05814468     0.36470
N763        N  0.44110982  0.25520522  0.09599156    -0.90110
H764        H  0.36912383  0.28003125  0.08927829     0.17590
H765        H  0.45188020  0.27540216  0.45596078     0.17580
N766        N  0.38577792  0.30546504  0.95238388    -0.89130
H767        H  0.47186016  0.26248979  0.10387612     0.34960
H768        H  0.44480481  0.23737915  0.09088416     0.40050
H769        H  0.35762486  0.31567358  0.95796828     0.39670
H770        H  0.37710882  0.29385766  0.92839823     0.34560
C771        C  0.38722208  0.28705064  0.25762947    -0.27170
C772        C  0.39015531  0.29835701  0.21870765    -0.15240
C773        C  0.42766690  0.29333370  0.19251056     0.35390
C774        C  0.45911223  0.27726798  0.20490263    -0.26620
C775        C  0.45765492  0.26698797  0.24411124    -0.15850
C776        C  0.42144832  0.27178848  0.27113985     0.36470
N777        N  0.42019802  0.26176784  0.31224402    -0.90110
H778        H  0.35938886  0.29085554  0.27813055     0.17590
H779        H  0.48694044  0.27387700  0.18415460     0.17580
N780        N  0.43710481  0.30489019  0.15380506    -0.89130
H781        H  0.39148279  0.26709864  0.32816315     0.34960
H782        H  0.44736152  0.26836888  0.32901977     0.40050
H783        H  0.44252290  0.32266704  0.15929325     0.39670
H784        H  0.41108047  0.30219319  0.13282146     0.34560
C785        C  0.43493101  0.45493077  0.27850011    -0.27170
C786        C  0.45063547  0.47073156  0.24823700    -0.15240
C787        C  0.42679456  0.47259800  0.21010071     0.35390
C788        C  0.38958607  0.45834434  0.20310762    -0.26620
C789        C  0.37560392  0.44153947  0.23224124    -0.15850
C790        C  0.39811223  0.44027925  0.27113367     0.36470
N791        N  0.38660306  0.42373766  0.30308173    -0.90110
H792        H  0.45210096  0.45318506  0.30792953     0.17590
H793        H  0.37330802  0.45922599  0.17283780     0.17580
N794        N  0.44088959  0.48733077  0.17630654    -0.89130
H795        H  0.41305458  0.41194604  0.30582925     0.34960
H796        H  0.35842920  0.41405374  0.29540829     0.40050
H797        H  0.46992934  0.49649866  0.18320355     0.39670
H798        H  0.41567167  0.49952857  0.17073682     0.34560
C799        C  0.59065597  0.44125852  0.26924025    -0.27170
C800        C  0.61033277  0.44250348  0.22962248    -0.15240
C801        C  0.59556802  0.45951123  0.20100041     0.35390
C802        C  0.55840135  0.47338633  0.21084762    -0.26620
C803        C  0.53592305  0.47068007  0.24895436    -0.15850
C804        C  0.55366136  0.45531599  0.27922787     0.36470
N805        N  0.53419380  0.45377998  0.31998766    -0.90110
H806        H  0.60208131  0.42832609  0.29147173     0.17590
H807        H  0.54605977  0.48578855  0.18813435     0.17580
N808        N  0.61757739  0.46191734  0.16131191    -0.89130
H809        H  0.55875276  0.45792303  0.34201398     0.34960
H810        H  0.52474800  0.43643159  0.32492393     0.40050
H811        H  0.65055958  0.46679511  0.16727085     0.39670
H812        H  0.60348870  0.47559819  0.14438096     0.34560
C813        C  0.40279761  0.45295165  0.05678698    -0.27170
C814        C  0.37569016  0.44362059  0.02473831    -0.15240
C815        C  0.38525312  0.45013446  0.98273213     0.35390
C816        C  0.42295322  0.46428050  0.97453461    -0.26620
C817        C  0.45186820  0.47135116  0.00688941    -0.15850
C818        C  0.44155853  0.46546878  0.04831673     0.36470
N819        N  0.47158966  0.47148359  0.08172421    -0.90110
H820        H  0.39557939  0.44906685  0.08924992     0.17590
H821        H  0.43082525  0.46892338  0.94253987     0.17580
N822        N  0.35894344  0.44258240  0.94768775    -0.89130
H823        H  0.46143591  0.46391160  0.10981791     0.34960
H824        H  0.47067331  0.48957766  0.08590226     0.40050
H825        H  0.33044038  0.43367854  0.95693104     0.39670
H826        H  0.37832498  0.43103472  0.92997002     0.34560
C827        C  0.54111322  0.44862263  0.98089568    -0.27170
C828        C  0.53594719  0.46921056  0.00455601    -0.15240
C829        C  0.56758267  0.47425227  0.03599217     0.35390
C830        C  0.60277333  0.45859314  0.04362925    -0.26620
C831        C  0.60736824  0.43777236  0.02061991    -0.15850
C832        C  0.57626286  0.43290945  0.98837114     0.36470
N833        N  0.57789883  0.41181356  0.96387477    -0.90110
H834        H  0.51690481  0.44445285  0.95682650     0.17590
H835        H  0.62541019  0.46213462  0.06930624     0.17580
N836        N  0.56265528  0.49453991  0.06189157    -0.89130
H837        H  0.54962320  0.40196545  0.97117455     0.34960
H838        H  0.60556374  0.40160834  0.97130031     0.40050
H839        H  0.59217294  0.50419962  0.06025613     0.39670
H840        H  0.55833133  0.48912414  0.09275915     0.34560
C841        C  0.41976342  0.52088464  0.51439872    -0.27170
C842        C  0.45408600  0.52171134  0.48433203    -0.15240
C843        C  0.44962993  0.53771624  0.45089557     0.35390
C844        C  0.40978288  0.55009604  0.44563110    -0.26620
C845        C  0.37449967  0.54758402  0.47375483    -0.15850
C846        C  0.37979841  0.53325573  0.50923538     0.36470
N847        N  0.34567593  0.53076094  0.54051092    -0.90110
H848        H  0.42384262  0.51079637  0.04251338     0.17590
H849        H  0.40633108  0.56175361  0.41915461     0.17580
N850        N  0.48582186  0.54211016  0.42280108    -0.89130
H851        H  0.33534647  0.51331746  0.04019229     0.34960
H852        H  0.31762363  0.54083101  0.53369024     0.40050
H853        H  0.49602739  0.55938302  0.42743648     0.39670
H854        H  0.47369810  0.54115602  0.39230567     0.34560
C855        C  0.39347164  0.53224849  0.31939684    -0.27170
C856        C  0.37216189  0.54503138  0.28768641    -0.15240
C857        C  0.38996792  0.54446190  0.24658694     0.35390
C858        C  0.43008118  0.53258177  0.23936685    -0.26620
C859        C  0.45151162  0.52006566  0.27117034    -0.15850
C860        C  0.43235328  0.51959803  0.31144730     0.36470
N861        N  0.45178016  0.50652387  0.34494609    -0.90110
H862        H  0.38008220  0.53224354  0.35090444     0.17590
H863        H  0.44361632  0.53263750  0.20809623     0.17580
N864        N  0.36809480  0.55494927  0.21121821    -0.89130
H865        H  0.48501883  0.51151131  0.34830163     0.34960
H866        H  0.45129449  0.48889220  0.33706897     0.40050
H867        H  0.33576409  0.56016509  0.21848340     0.39670
H868        H  0.36393614  0.54192101  0.18852600     0.34560
C869        C  0.09987510  0.59009024  0.20675974    -0.27170
C870        C  0.10303345  0.57365185  0.23957590    -0.15240
C871        C  0.07620072  0.55331315  0.23676562     0.35390
C872        C  0.04487376  0.55150217  0.20401168    -0.26620
C873        C  0.03894602  0.56924879  0.17388576    -0.15850
C874        C  0.06807686  0.58865816  0.17506523     0.36470
N875        N  0.06506078  0.60812441  0.14686330    -0.90110
H876        H  0.12063095  0.60556223  0.20666182     0.17590
H877        H  0.02280902  0.53651313  0.20353130     0.17580
N878        N  0.07862829  0.53435032  0.26602806    -0.89130
H879        H  0.06212990  0.62340172  0.16470428     0.34960
H880        H  0.03590693  0.60744883  0.12961289     0.40050
H881        H  0.10450289  0.53645818  0.28726095     0.39670
H882        H  0.08647120  0.51923763  0.24909573     0.34560
C883        C  0.05996717  0.59186378  0.51725461    -0.27170
C884        C  0.09204428  0.57442387  0.51192172    -0.15240
C885        C  0.09305445  0.55552642  0.04053537     0.35390
C886        C  0.06159857  0.55464225  0.07342030    -0.26620
C887        C  0.02941626  0.57227148  0.07874465    -0.15850
C888        C  0.02900914  0.59117637  0.04983245     0.36470
N889        N  0.99867827  0.61054348  0.05312377    -0.90110
H890        H  0.06009686  0.60689286  0.49667692     0.17590
H891        H  0.06164343  0.53981615  0.09438308     0.17580
N892        N  0.12595638  0.53732583  0.03791618    -0.89130
H893        H  0.97560470  0.60914039  0.02872446     0.34960
H894        H  0.98119622  0.61053153  0.08120926     0.40050
H895        H  0.14712719  0.53971787  0.51238773     0.39670
H896        H  0.10910879  0.52161687  0.03253983     0.34560
C897        C  0.38549862  0.70758940  0.47466362    -0.27170
C898        C  0.38471033  0.68555859  0.49449430    -0.15240
C899        C  0.41466611  0.68152477  0.52790349     0.35390
C900        C  0.44634252  0.69876291  0.53760722    -0.26620
C901        C  0.45102084  0.71917425  0.51333465    -0.15850
C902        C  0.41955986  0.72370719  0.48174676     0.36470
N903        N  0.42398006  0.74367120  0.45482093    -0.90110
H904        H  0.36160869  0.71157191  0.45029681     0.17590
H905        H  0.47047341  0.69501531  0.06180058     0.17580
N906        N  0.41687312  0.65993125  0.05058384    -0.89130
H907        H  0.39764286  0.74454061  0.43345735     0.34960
H908        H  0.45301913  0.74156894  0.43715909     0.40050
H909        H  0.39384109  0.64773398  0.03998586     0.39670
H910        H  0.40885817  0.66356183  0.08177117     0.34560
C911        C  0.37903362  0.70763288  0.28699099    -0.27170
C912        C  0.38233748  0.68537614  0.26836930    -0.15240
C913        C  0.41494841  0.68163004  0.23720550     0.35390
C914        C  0.44547948  0.69960350  0.22892452    -0.26620
C915        C  0.44688477  0.72010892  0.25364975    -0.15850
C916        C  0.41252302  0.72409008  0.28267554     0.36470
N917        N  0.41347797  0.74345496  0.31113691    -0.90110
H918        H  0.35305726  0.71143202  0.30960299     0.17590
H919        H  0.47062438  0.69653478  0.20532950     0.17580
N920        N  0.42000469  0.65990468  0.21505006    -0.89130
H921        H  0.41442565  0.73700119  0.34168586     0.34960
H922        H  0.38358117  0.75266298  0.30779625     0.40050
H923        H  0.39575714  0.64781010  0.22337528     0.39670
H924        H  0.45075668  0.65275557  0.22358670     0.34560
C925        C  0.56414577  0.51449462  0.30142277    -0.27170
C926        C  0.53648518  0.52069811  0.26816876    -0.15240
C927        C  0.54900838  0.53977050  0.24267155     0.35390
C928        C  0.58748747  0.55289864  0.25270378    -0.26620
C929        C  0.61470372  0.54689176  0.28678511    -0.15850
C930        C  0.60288966  0.52686756  0.31058953     0.36470
N931        N  0.62855869  0.51880560  0.34529373    -0.90110
H932        H  0.55519041  0.49995414  0.32116244     0.17590
H933        H  0.59636331  0.56778260  0.23362410     0.17580
N934        N  0.52326842  0.54554525  0.20632236    -0.89130
H935        H  0.63011463  0.53228373  0.36725015     0.34960
H936        H  0.66046900  0.51427739  0.33496259     0.40050
H937        H  0.52574739  0.53150554  0.18544529     0.39670
H938        H  0.53675531  0.56004457  0.19110132     0.34560
C939        C  0.54577245  0.54068312  0.50777383    -0.27170
C940        C  0.53904960  0.51997830  0.48477369    -0.15240
C941        C  0.57175996  0.51282257  0.45596717     0.35390
C942        C  0.61122187  0.52558831  0.45241205    -0.26620
C943        C  0.61696803  0.54707665  0.47312106    -0.15850
C944        C  0.58383560  0.55464062  0.50155554     0.36470
N945        N  0.58835627  0.57643767  0.02356944    -0.90110
H946        H  0.52037114  0.54635629  0.02966542     0.17590
H947        H  0.63697017  0.51888770  0.43200243     0.17580
N948        N  0.56404735  0.49342152  0.42850232    -0.89130
H949        H  0.56220083  0.57867154  0.04483314     0.34960
H950        H  0.58500863  0.58980542  0.50159202     0.40050
H951        H  0.59052064  0.48168828  0.43181340     0.39670
H952        H  0.56445743  0.49958112  0.39779651     0.34560
C953        C  0.87897043  0.58266406  0.05790201    -0.27170
C954        C  0.88290209  0.57053604  0.51948184    -0.15240
C955        C  0.91666647  0.55323827  0.51632755     0.35390
C956        C  0.94741041  0.55085778  0.04942620    -0.26620
C957        C  0.94721925  0.56579115  0.08483924    -0.15850
C958        C  0.91105702  0.58127384  0.08934446     0.36470
N959        N  0.90833700  0.59747065  0.12336406    -0.90110
H960        H  0.85241275  0.59518377  0.06288940     0.17590
H961        H  0.97441403  0.53845161  0.04560812     0.17580
N962        N  0.92285182  0.53853547  0.48023881    -0.89130
H963        H  0.87819654  0.59463610  0.13898198     0.34960
H964        H  0.90765226  0.61441613  0.11128604     0.40050
H965        H  0.89820266  0.54092036  0.45791305     0.39670
H966        H  0.91977802  0.52121338  0.49006973     0.34560
C967        C  0.92232462  0.59381164  0.23832333    -0.27170
C968        C  0.89437674  0.57504428  0.24778274    -0.15240
C969        C  0.89815068  0.55412251  0.22405303     0.35390
C970        C  0.92961813  0.55282166  0.19119431    -0.26620
C971        C  0.95705309  0.57193935  0.18140111    -0.15850
C972        C  0.95333835  0.59260083  0.20574432     0.36470
N973        N  0.98045221  0.61263849  0.19666460    -0.90110
H974        H  0.91868617  0.61002521  0.25565856     0.17590
H975        H  0.93306043  0.53672851  0.17355666     0.17580
N976        N  0.86995972  0.53426573  0.23133857    -0.89130
H977        H  0.97471055  0.62609587  0.21820356     0.34960
H978        H  0.97074918  0.61904651  0.16750251     0.40050
H979        H  0.84809578  0.53724698  0.25616295     0.40630
H980        H  0.89046234  0.52039294  0.24033373     0.34560
C981        C  0.57555412  0.69999866  0.31212107    -0.27170
C982        C  0.59688616  0.68735336  0.28007419    -0.15240
C983        C  0.58524146  0.69193318  0.23815497     0.35390
C984        C  0.55210142  0.70868493  0.22968534    -0.26620
C985        C  0.52945960  0.72020827  0.26251683    -0.15850
C986        C  0.54128611  0.71562872  0.30407201     0.36470
N987        N  0.51757858  0.72636907  0.33817234    -0.90110
H988        H  0.58558969  0.69765739  0.34423916     0.17590
H989        H  0.54304553  0.71222280  0.19751061     0.17580
N990        N  0.60694301  0.68041215  0.20397380    -0.89130
H991        H  0.53315357  0.72287953  0.36673942     0.34960
H992        H  0.48630806  0.71843565  0.33970196     0.40050
H993        H  0.60183365  0.66244446  0.20701942     0.39670
H994        H  0.64113757  0.68373861  0.20604207     0.34560
C995        C  0.59342021  0.68944364  0.52217308    -0.27170
C996        C  0.59003297  0.67846025  0.48308982    -0.15240
C997        C  0.55489975  0.68445661  0.45598861     0.35390
C998        C  0.52839413  0.70366980  0.46544923    -0.26620
C999        C  0.53212863  0.71545091  0.50391501    -0.15850
C1000       C  0.56308535  0.70708937  0.53384808     0.36470
N1001       N  0.56343966  0.71610513  0.07580995    -0.90110
H1002       H  0.62020187  0.68458625  0.54317175     0.17590
H1003       H  0.50243996  0.70846096  0.44353148     0.17580
N1004       N  0.54382721  0.67066871  0.41976415    -0.89130
H1005       H  0.58836255  0.70807523  0.09354731     0.34960
H1006       H  0.53313456  0.71191389  0.08994438     0.40050
H1007       H  0.56510539  0.65636364  0.41621167     0.39670
H1008       H  0.54702438  0.68113252  0.39341265     0.34560
C1009       C  0.92605913  0.71113412  0.52912030    -0.27170
C1010       C  0.95665136  0.71404710  0.49625484    -0.15240
C1011       C  0.94756964  0.70390500  0.45694874     0.35390
C1012       C  0.90799300  0.69205483  0.45048192    -0.26620
C1013       C  0.87707371  0.68924021  0.48272059    -0.15850
C1014       C  0.88625587  0.69857832  0.52293388     0.36470
N1015       N  0.85563171  0.69663468  0.05731917    -0.90110
H1016       H  0.93308527  0.71871870  0.05953604     0.17590
H1017       H  0.90131864  0.68490201  0.41963368     0.17580
N1018       N  0.97737604  0.70601751  0.42236000    -0.89130
H1019       H  0.87123308  0.68678771  0.08059511     0.34960
H1020       H  0.82682257  0.68761213  0.04878021     0.40050
H1021       H  0.98576215  0.72359651  0.41855403     0.39670
H1022       H  0.00601379  0.69621659  0.42821821     0.34560
C1023       C  0.06996950  0.72348435  0.46483569    -0.27170
C1024       C  0.04063788  0.71482950  0.49495886    -0.15240
C1025       C  0.05124927  0.69428164  0.51695522     0.35390
C1026       C  0.09132759  0.68274136  0.50789240    -0.26620
C1027       C  0.12098301  0.69177902  0.47807971    -0.15850
C1028       C  0.11052054  0.71298674  0.45754236     0.36470
N1029       N  0.13998058  0.72458871  0.42916543    -0.90110
H1030       H  0.06123505  0.73869665  0.44651442     0.17590
H1031       H  0.09910085  0.66656623  0.52378863     0.17580
N1032       N  0.02128693  0.68521659  0.54800754    -0.89130
H1033       H  0.14379727  0.71438632  0.40235919     0.34960
H1034       H  0.17069532  0.72731053  0.44385237     0.40050
H1035       H  0.01949473  0.69742355  0.57235478     0.39670
H1036       H  0.03396330  0.66983752  0.56093825     0.34560
C1037       C  0.44699534  0.93288862  0.45186025    -0.27170
C1038       C  0.45181692  0.91397860  0.42389307    -0.15240
C1039       C  0.42226976  0.89495275  0.42737232     0.35390
C1040       C  0.38837621  0.89541525  0.95761189    -0.26620
C1041       C  0.38426176  0.91401793  0.98617901    -0.15850
C1042       C  0.41408879  0.93304651  0.48323961     0.36470
N1043       N  0.41188370  0.95282359  0.51099243    -0.90110
H1044       H  0.46988033  0.94747287  0.45006655     0.17590
H1045       H  0.36631803  0.88048238  0.96005827     0.17580
N1046       N  0.42784349  0.87452838  0.40196955    -0.89130
H1047       H  0.44135303  0.95312925  0.52845925     0.34960
H1048       H  0.38573918  0.95129510  0.03233151     0.40050
H1049       H  0.39800031  0.87162716  0.38586256     0.39670
H1050       H  0.43292229  0.86027551  0.42176607     0.34560
C1051       C  0.43437803  0.89170369  0.31194448    -0.27170
C1052       C  0.44893405  0.91275817  0.32982558    -0.15240
C1053       C  0.42822535  0.93383631  0.31772313     0.35390
C1054       C  0.39421537  0.93342977  0.28709870    -0.26620
C1055       C  0.38081272  0.91232985  0.26859744    -0.15850
C1056       C  0.40048380  0.89122070  0.28175920     0.36470
N1057       N  0.38615444  0.86931806  0.26412485    -0.90110
H1058       H  0.45041589  0.87551978  0.32071202     0.17590
H1059       H  0.37868077  0.94956810  0.27717875     0.17580
N1060       N  0.44300134  0.95559505  0.33535413    -0.89130
H1061       H  0.40339260  0.85548288  0.27791318     0.34960
H1062       H  0.39502799  0.86917515  0.23250705     0.40050
H1063       H  0.43559994  0.95533832  0.36729417     0.39670
H1064       H  0.42510347  0.96951668  0.32256562     0.34560
C1065       C  0.08126561  0.93440585  0.27055244    -0.27170
C1066       C  0.10916829  0.94029830  0.23708858    -0.15240
C1067       C  0.10384625  0.96203816  0.21738102     0.35390
C1068       C  0.06802857  0.97655456  0.22876870    -0.26620
C1069       C  0.03776076  0.97003092  0.26032749    -0.15850
C1070       C  0.04605890  0.94911496  0.28280804     0.36470
N1071       N  0.01937517  0.94216478  0.31793475    -0.90110
H1072       H  0.08547080  0.91772679  0.28598413     0.17590
H1073       H  0.06197973  0.99226836  0.21090992     0.17580
N1074       N  0.13387920  0.96880173  0.18459428    -0.89130
H1075       H  0.99963050  0.92806353  0.30846765     0.34960
H1076       H  0.99825306  0.95557179  0.32779792     0.40050
H1077       H  0.16568879  0.97023655  0.19771865     0.39670
H1078       H  0.12564659  0.98539150  0.17341011     0.34560
C1079       C  0.08652253  0.93752583  0.98375728    -0.27170
C1080       C  0.11176079  0.94227840  0.01965825    -0.15240
C1081       C  0.10021424  0.96175231  0.04489818     0.35390
C1082       C  0.06237877  0.97500692  0.03521416    -0.26620
C1083       C  0.03559445  0.96953756  0.00062119    -0.15850
C1084       C  0.04859512  0.95097826  0.97387905     0.36470
N1085       N  0.02318204  0.94570704  0.43699847    -0.90110
H1086       H  0.09474565  0.92237986  0.96483813     0.17590
H1087       H  0.05312280  0.98939902  0.05556996     0.17580
N1088       N  0.12526093  0.96812892  0.08148334    -0.89130
H1089       H  0.03608660  0.93101665  0.42170885     0.34960
H1090       H  0.02721566  0.95966944  0.41638071     0.40050
H1091       H  0.15431447  0.95822463  0.08439696     0.39670
H1092       H  0.10515345  0.96448666  0.10731621     0.34560
C1093       C  0.42341667  0.76501864  0.04691775    -0.27170
C1094       C  0.45988912  0.77218853  0.02202259    -0.15240
C1095       C  0.45609594  0.79451782  0.00271257     0.35390
C1096       C  0.41612315  0.80734837  0.00539991    -0.26620
C1097       C  0.37925766  0.79915676  0.02769857    -0.15850
C1098       C  0.38298975  0.77747859  0.04834730     0.36470
N1099       N  0.34674555  0.76783580  0.07207560    -0.90110
H1100       H  0.42589800  0.74940845  0.06570296     0.17590
H1101       H  0.41502539  0.82475784  0.99215797     0.17580
N1102       N  0.49298079  0.80527097  0.98215663    -0.89130
H1103       H  0.33855914  0.75173446  0.05858495     0.34960
H1104       H  0.31816839  0.77816486  0.06971359     0.40050
H1105       H  0.50064164  0.82075749  0.99803306     0.39670
H1106       H  0.48312534  0.80969934  0.95180671     0.34560
C1107       C  0.39302143  0.80176394  0.26340673    -0.27170
C1108       C  0.36977052  0.79713948  0.22644531    -0.15240
C1109       C  0.38481007  0.77898909  0.19976186     0.35390
C1110       C  0.42412315  0.76695134  0.20947142    -0.26620
C1111       C  0.44859637  0.77210748  0.24581305    -0.15850
C1112       C  0.43249101  0.78975336  0.27299263     0.36470
N1113       N  0.45545280  0.79540284  0.31079941    -0.90110
H1114       H  0.38201145  0.81576298  0.28380787     0.17590
H1115       H  0.43583603  0.75349132  0.18821296     0.17580
N1116       N  0.36153365  0.77267703  0.16208915    -0.89130
H1117       H  0.43367166  0.79274948  0.33587106     0.34960
H1118       H  0.46363205  0.81314846  0.31002923     0.40050
H1119       H  0.33174190  0.78195754  0.15914877     0.39670
H1120       H  0.35235163  0.75512693  0.16468828     0.34560
C1121       C  0.04672011  0.78387286  0.98377349    -0.27170
C1122       C  0.04101311  0.76491698  0.01097595    -0.15240
C1123       C  0.07348381  0.76054889  0.04202963     0.35390
C1124       C  0.11009171  0.77567492  0.04576830    -0.26620
C1125       C  0.11421922  0.79544376  0.02030516    -0.15850
C1126       C  0.08281331  0.79922450  0.98802222     0.36470
N1127       N  0.08455897  0.81925085  0.46104645    -0.90110
H1128       H  0.02186265  0.78726216  0.45993104     0.17590
H1129       H  0.13372814  0.77313106  0.07096596     0.17580
N1130       N  0.06824829  0.74146573  0.07073768    -0.89130
H1131       H  0.08759523  0.81310993  0.43032989     0.34960
H1132       H  0.11285258  0.82934921  0.96674188     0.40050
H1133       H  0.04025023  0.74477048  0.08925599     0.39670
H1134       H  0.09549980  0.74041240  0.09101041     0.34560
C1135       C  0.06252304  0.76127751  0.19952060    -0.27170
C1136       C  0.03474957  0.76531433  0.23402946    -0.15240
C1137       C  0.04655857  0.78271194  0.26337595     0.35390
C1138       C  0.08439408  0.79660722  0.25655162    -0.26620
C1139       C  0.11059658  0.79347925  0.22073558    -0.15850
C1140       C  0.10039882  0.77502658  0.19263147     0.36470
N1141       N  0.12689636  0.77028365  0.15608153    -0.90110
H1142       H  0.05422505  0.74758696  0.17732652     0.17590
H1143       H  0.09148493  0.81091571  0.27783449     0.17580
N1144       N  0.02022021  0.78633925  0.30014745    -0.89130
H1145       H  0.13880366  0.75318483  0.15862021     0.34960
H1146       H  0.15515220  0.78089829  0.15503613     0.40050
H1147       H  0.00900666  0.80362922  0.30013697     0.39670
H1148       H  0.04076440  0.78407196  0.32624885     0.34560
C1149       C  0.92753046  0.70536673  0.22465557    -0.27170
C1150       C  0.95681411  0.71341838  0.25577254    -0.15240
C1151       C  0.94674225  0.70934898  0.29778203     0.35390
C1152       C  0.90809797  0.69723658  0.30853975    -0.26620
C1153       C  0.87836091  0.68930143  0.27771833    -0.15850
C1154       C  0.88787519  0.69375845  0.23499116     0.36470
N1155       N  0.85797510  0.68771195  0.20143240    -0.90110
H1156       H  0.93470144  0.70831648  0.19208009     0.17590
H1157       H  0.90125752  0.69413279  0.34135019     0.17580
N1158       N  0.97594569  0.71779856  0.32966429    -0.89130
H1159       H  0.84985155  0.70313762  0.18575137     0.34960
H1160       H  0.82777936  0.68125401  0.21244152     0.40050
H1161       H  0.98818500  0.70330094  0.34567309     0.39670
H1162       H  0.95743581  0.72838350  0.34993110     0.34560
C1163       C  0.06898862  0.72443330  0.28544635    -0.27170
C1164       C  0.04158597  0.71545787  0.25360429    -0.15240
C1165       C  0.05531380  0.69480943  0.23251689     0.35390
C1166       C  0.09364557  0.68290262  0.24622304    -0.26620
C1167       C  0.12071192  0.69190431  0.27834807    -0.15850
C1168       C  0.10933295  0.71370590  0.29634579     0.36470
N1169       N  0.13868957  0.72505493  0.32551920    -0.90110
H1170       H  0.05869704  0.73992033  0.30233648     0.17590
H1171       H  0.10250145  0.66655769  0.23117765     0.17580
N1172       N  0.03163505  0.68548886  0.19708537    -0.89130
H1173       H  0.12498069  0.74078822  0.33615816     0.34960
H1174       H  0.16777629  0.72943573  0.30933253     0.40050
H1175       H  0.00811325  0.69740832  0.18632044     0.39670
H1176       H  0.05441854  0.68391560  0.17247263     0.34560
C1177       C  0.58723556  0.92995815  0.28281606    -0.27170
C1178       C  0.59651216  0.90865738  0.26295948    -0.15240
C1179       C  0.57510389  0.88813508  0.27693131     0.35390
C1180       C  0.54380703  0.88951520  0.30964561    -0.26620
C1181       C  0.53250801  0.91104634  0.32793489    -0.15850
C1182       C  0.55501541  0.93133888  0.31477227     0.36470
N1183       N  0.54455590  0.95347842  0.33318870    -0.90110
H1184       H  0.60448893  0.94563453  0.27302355     0.17590
H1185       H  0.52711750  0.87380751  0.31997879     0.17580
N1186       N  0.58553641  0.86594400  0.25804649    -0.89130
H1187       H  0.53405617  0.96465401  0.30934676     0.34960
H1188       H  0.57385290  0.96036177  0.34595405     0.40050
H1189       H  0.57447962  0.86637836  0.22704121     0.39670
H1190       H  0.56785105  0.85250808  0.27262889     0.34560
C1191       C  0.55837165  0.93160460  0.43205325    -0.27170
C1192       C  0.53543862  0.91115022  0.42067698    -0.15240
C1193       C  0.54842647  0.88976732  0.43847317     0.35390
C1194       C  0.58247701  0.88926523  0.96853304    -0.26620
C1195       C  0.60426822  0.90980570  0.98116643    -0.15850
C1196       C  0.59296314  0.93119254  0.46181061     0.36470
N1197       N  0.61443250  0.95283161  0.47257421    -0.90110
H1198       H  0.54794139  0.94820091  0.41921294     0.17590
H1199       H  0.59145572  0.87273066  0.98268193     0.17580
N1200       N  0.52612005  0.86858667  0.42700717    -0.89130
H1201       H  0.63055692  0.95890522  0.44573762     0.34960
H1202       H  0.63921304  0.95041995  0.99505781     0.40050
H1203       H  0.51259388  0.86127545  0.45411347     0.39670
H1204       H  0.54989992  0.85695652  0.41518356     0.34560
C1205       C  0.88703642  0.94603443  0.98450815    -0.27170
C1206       C  0.87733287  0.94285608  0.02709269    -0.15240
C1207       C  0.90125088  0.95613334  0.05698233     0.35390
C1208       C  0.93915639  0.96862282  0.04476531    -0.26620
C1209       C  0.95090438  0.97079369  0.00264427    -0.15850
C1210       C  0.92264268  0.96056818  0.97181245     0.36470
N1211       N  0.92875700  0.96446645  0.42781816    -0.90110
H1212       H  0.86790704  0.93667985  0.96109009     0.17590
H1213       H  0.95982648  0.97681203  0.06845026     0.17580
N1214       N  0.88719701  0.95659034  0.09998333    -0.89130
H1215       H  0.93661529  0.94847952  0.41375409     0.34960
H1216       H  0.95515604  0.97586555  0.42222283     0.40050
H1217       H  0.85498508  0.96355583  0.10076209     0.39670
H1218       H  0.90691983  0.96812324  0.11728636     0.34560
C1219       C  0.91471943  0.94494649  0.20486663    -0.27170
C1220       C  0.88050730  0.93944849  0.23366460    -0.15240
C1221       C  0.88262040  0.95021456  0.27398777     0.35390
C1222       C  0.91910562  0.96513264  0.28374841    -0.26620
C1223       C  0.95357929  0.96928757  0.25467833    -0.15850
C1224       C  0.95071556  0.95904548  0.21495753     0.36470
N1225       N  0.98420111  0.96345300  0.18393704    -0.90110
H1226       H  0.91499526  0.93773663  0.17356023     0.17590
H1227       H  0.92109682  0.97305220  0.31453427     0.17580
N1228       N  0.84989691  0.94635234  0.30601123    -0.89130
H1229       H  0.96931022  0.97150330  0.15823522     0.34960
H1230       H  0.99745266  0.94745064  0.17413988     0.40050
H1231       H  0.82417938  0.93565451  0.29567346     0.39670
H1232       H  0.83532857  0.96248465  0.31304783     0.34560
C1233       C  0.59538259  0.79589469  0.26828503    -0.27170
C1234       C  0.60971867  0.79615857  0.22652901    -0.15240
C1235       C  0.58850023  0.78111001  0.19760290     0.35390
C1236       C  0.55062228  0.76883149  0.20871129    -0.26620
C1237       C  0.53345090  0.77010048  0.24909957    -0.15850
C1238       C  0.55807686  0.78242009  0.28029386     0.36470
N1239       N  0.54762788  0.78109740  0.32401187    -0.90110
H1240       H  0.61215740  0.80670044  0.29130143     0.17590
H1241       H  0.53378924  0.75842644  0.18506230     0.17580
N1242       N  0.60532126  0.77752478  0.15648219    -0.89130
H1243       H  0.53944481  0.79786324  0.33452836     0.34960
H1244       H  0.52031158  0.77028119  0.32923333     0.40050
H1245       H  0.63944418  0.77409962  0.15914198     0.39670
H1246       H  0.60005751  0.79250607  0.13869477     0.34560
C1247       C  0.60391227  0.78954995  0.98015135    -0.27170
C1248       C  0.62717715  0.79094876  0.01832358    -0.15240
C1249       C  0.61512148  0.77527676  0.04992129     0.35390
C1250       C  0.57202654  0.76598322  0.05017242    -0.26620
C1251       C  0.54624457  0.76582400  0.01365288    -0.15850
C1252       C  0.56608485  0.77464889  0.97652694     0.36470
N1253       N  0.54861729  0.76832654  0.43610891    -0.90110
H1254       H  0.61447354  0.80010598  0.45392345     0.17590
H1255       H  0.55918344  0.75849377  0.07869927     0.17580
N1256       N  0.64607440  0.76898642  0.08210728    -0.89130
H1257       H  0.56625189  0.77693428  0.41255645     0.34960
H1258       H  0.51538005  0.77342165  0.43366037     0.40050
H1259       H  0.67729144  0.77649164  0.07663781     0.39670
H1260       H  0.65077232  0.75091618  0.08031552     0.34560
C1261       C  0.88925463  0.78494013  0.99932931    -0.27170
C1262       C  0.89144601  0.79756496  0.03705179    -0.15240
C1263       C  0.92780214  0.79337610  0.06495648     0.35390
C1264       C  0.95862127  0.77622762  0.05546975    -0.26620
C1265       C  0.95779887  0.76446250  0.01752998    -0.15850
C1266       C  0.92314324  0.76886384  0.98876284     0.36470
N1267       N  0.92338062  0.75801005  0.44838614    -0.90110
H1268       H  0.86250461  0.78826289  0.97737280     0.17590
H1269       H  0.98605507  0.77332464  0.07683858     0.17580
N1270       N  0.93553080  0.80734690  0.10188782    -0.89130
H1271       H  0.92418754  0.77116301  0.42580380     0.34960
H1272       H  0.89346734  0.74884637  0.44486026     0.40050
H1273       H  0.94643469  0.82373907  0.09183136     0.39670
H1274       H  0.96158203  0.80071987  0.12005415     0.34560
C1275       C  0.89436229  0.77984742  0.18888386    -0.27170
C1276       C  0.87472903  0.79189745  0.22270391    -0.15240
C1277       C  0.89026461  0.78695085  0.26371473     0.35390
C1278       C  0.92698102  0.77178577  0.26888741    -0.26620
C1279       C  0.94996504  0.76248249  0.23425038    -0.15850
C1280       C  0.93250415  0.76592026  0.19395537     0.36470
N1281       N  0.95572198  0.75705266  0.15786086    -0.90110
H1282       H  0.88233609  0.78312499  0.15746975     0.17590
H1283       H  0.93924187  0.76838185  0.30014827     0.17580
N1284       N  0.87167846  0.79765071  0.30050437    -0.89130
H1285       H  0.93587870  0.75907971  0.13131295     0.34960
H1286       H  0.95990444  0.73910633  0.16094475     0.40050
H1287       H  0.84423445  0.80804494  0.29354620     0.39670
H1288       H  0.89601438  0.80860037  0.31336335     0.34560
N1289       N  0.79989756  0.83996458  0.70542211    -0.06970
N1290       N  0.80982073  0.82145481  0.72880970    -0.59090
N1291       N  0.82540477  0.89525111  0.67662920    -0.06650
N1292       N  0.85617102  0.91110408  0.68097341    -0.61220
N1293       N  0.79828059  0.89496034  0.70871165    -0.06250
N1294       N  0.81122723  0.91127747  0.73623850    -0.59060
N1295       N  0.82986530  0.84235592  0.67591843    -0.05920
N1296       N  0.86032792  0.82597099  0.67819513    -0.61570
C1297       C  0.84801672  0.81293922  0.71111667     0.95210
C1298       C  0.84782771  0.92137722  0.71786909     0.94990
N1299       N  0.80242377  0.89540510  0.54759728    -0.07150
N1300       N  0.81416676  0.91253900  0.52169025    -0.59670
N1301       N  0.83153979  0.84331596  0.58238248    -0.05270
N1302       N  0.86335604  0.82803199  0.58285635    -0.60920
N1303       N  0.80621698  0.84087029  0.54934666    -0.07180
N1304       N  0.82188785  0.82340864  0.52576483    -0.59930
N1305       N  0.82823811  0.89586160  0.58080495    -0.04920
N1306       N  0.85737325  0.91284800  0.57858597    -0.61010
Mn1307     Mn  0.82823014  0.86943485  0.62886897     1.18440
C1308       C  0.84838671  0.92345016  0.54212525     0.97290
C1309       C  0.85802067  0.81566309  0.54795657     0.97950
N1310       N  0.69046156  0.89233547  0.70592586    -0.07200
N1311       N  0.67347844  0.90112359  0.74066848    -0.63510
N1312       N  0.66339277  0.84080159  0.67080374    -0.06010
N1313       N  0.63122506  0.82554716  0.67484527    -0.64190
N1314       N  0.69140512  0.83956349  0.70249127    -0.06710
N1315       N  0.67781824  0.82318737  0.72910650    -0.63780
N1316       N  0.66050645  0.89285340  0.67543995    -0.05610
N1317       N  0.62274084  0.90166776  0.69008891    -0.64470
Mn1318     Mn  0.74523874  0.86661806  0.70721785     1.10660
C1319       C  0.63153180  0.90723372  0.73049932     0.98510
C1320       C  0.64045458  0.81436341  0.71060328     0.98590
N1321       N  0.69806909  0.83918870  0.54380448    -0.06720
N1322       N  0.68920451  0.82179337  0.51724416    -0.62090
N1323       N  0.66404901  0.89294637  0.57017866    -0.06040
N1324       N  0.62738595  0.90218675  0.55424991    -0.58820
N1325       N  0.69544670  0.89218957  0.54112474    -0.07350
N1326       N  0.68042269  0.90115149  0.50578307    -0.61660
N1327       N  0.66698946  0.84030983  0.57290986    -0.06330
N1328       N  0.63708977  0.82384360  0.56711806    -0.58840
Mn1329     Mn  0.75092364  0.86678670  0.54377524     1.20190
Mn1330     Mn  0.66359481  0.86734433  0.62228744     1.10090
Cl1331     Cl  0.74615664  0.86786403  0.62553350    -0.86810
C1332       C  0.65076273  0.81243845  0.53243888     0.95520
C1333       C  0.63826057  0.90777312  0.51444282     0.95320
C1334       C  0.99743781  0.72708594  0.74554533    -0.00290
C1335       C  0.99411910  0.75065357  0.73959254    -0.00290
N1336       N  0.18750099  0.84172241  0.54683964    -0.06970
N1337       N  0.17838522  0.82421265  0.52089875    -0.59090
N1338       N  0.15738699  0.89610356  0.57701523    -0.06650
N1339       N  0.12781692  0.91283148  0.57285417    -0.61220
N1340       N  0.18602669  0.89602335  0.54582532    -0.06250
N1341       N  0.17579076  0.91300361  0.51921733    -0.59060
N1342       N  0.15704295  0.84292368  0.57630124    -0.05920
N1343       N  0.12717467  0.82636361  0.57173809    -0.61570
C1344       C  0.14069714  0.81482247  0.53736557     0.95210
C1345       C  0.13960679  0.92341245  0.53712553     0.94990
N1346       N  0.18331499  0.89507318  0.70614460    -0.07150
N1347       N  0.17268307  0.91125682  0.73424451    -0.59670
N1348       N  0.15525194  0.84234315  0.67104491    -0.05270
N1349       N  0.12590384  0.82540156  0.67255805    -0.60920
N1350       N  0.18400851  0.84088593  0.70190182    -0.07180
N1351       N  0.17392437  0.82277603  0.72597065    -0.59930
N1352       N  0.15519484  0.89575367  0.67458127    -0.04920
N1353       N  0.12533542  0.91234266  0.68012479    -0.61010
Mn1354     Mn  0.15575776  0.86952291  0.62470473     1.18440
C1355       C  0.13667755  0.92199526  0.71714860     0.97290
C1356       C  0.13783578  0.81323970  0.70653788     0.97950
N1357       N  0.29283234  0.89565680  0.54492694    -0.07200
N1358       N  0.30834447  0.90447336  0.50977315    -0.63510
N1359       N  0.32488665  0.84479794  0.57969157    -0.06010
N1360       N  0.35699448  0.82930338  0.57732956    -0.64190
N1361       N  0.29622619  0.84237577  0.54881152    -0.06710
N1362       N  0.30953929  0.82500449  0.52389214    -0.63780
N1363       N  0.32305449  0.89734041  0.57490158    -0.05610
N1364       N  0.35967555  0.90708560  0.55963388    -0.64470
Mn1365     Mn  0.24037131  0.86879596  0.54509934     1.10660
C1366       C  0.34976837  0.91188417  0.51916950     0.98510
C1367       C  0.34730458  0.81692943  0.54292484     0.98590
N1368       N  0.29195316  0.84198543  0.70348034    -0.06720
N1369       N  0.30265761  0.82416380  0.72800944    -0.62090
N1370       N  0.32029098  0.89712420  0.67963580    -0.06040
N1371       N  0.35632054  0.90714696  0.69542925    -0.58820
N1372       N  0.28974150  0.89507201  0.70921309    -0.07350
N1373       N  0.30473345  0.90388247  0.74477332    -0.61660
N1374       N  0.32214976  0.84434018  0.67396235    -0.06330
N1375       N  0.35288860  0.82812050  0.67677844    -0.58840
Mn1376     Mn  0.23701614  0.86811730  0.70664759     1.20190
Mn1377     Mn  0.32248002  0.87170000  0.62714321     1.10090
Cl1378     Cl  0.23906842  0.86983102  0.62586843    -0.86810
C1379       C  0.34045243  0.81555547  0.71011354     0.95520
C1380       C  0.34602974  0.91173614  0.73587257     0.95320
C1381       C  0.99843548  0.72750253  0.00225529    -0.00290
C1382       C  0.99864397  0.75107002  0.50788445    -0.00290
N1383       N  0.78642416  0.65228341  0.96045172    -0.06970
N1384       N  0.81883010  0.65794927  0.98670480    -0.59090
N1385       N  0.68381993  0.66077398  0.92722699    -0.06650
N1386       N  0.64910876  0.67448015  0.93139287    -0.61220
N1387       N  0.68480938  0.64493938  0.95676526    -0.06250
N1388       N  0.65091731  0.64800004  0.98283180    -0.59060
N1389       N  0.78403081  0.66757704  0.93012970    -0.05920
N1390       N  0.81377998  0.68415504  0.93510991    -0.61570
C1391       C  0.83495123  0.67814649  0.97067210     0.95210
C1392       C  0.62879495  0.66634722  0.96581677     0.94990
N1393       N  0.68477232  0.64701383  0.80230685    -0.07150
N1394       N  0.65264262  0.65308484  0.77561537    -0.59670
N1395       N  0.78545147  0.66739180  0.83173184    -0.05270
N1396       N  0.81670842  0.68334553  0.82797760    -0.60920
N1397       N  0.78704607  0.65240189  0.80051031    -0.07180
N1398       N  0.82025124  0.65767313  0.77506865    -0.59930
N1399       N  0.68592371  0.66204527  0.83333448    -0.04920
N1400       N  0.65533827  0.67800118  0.82941857    -0.61010
Mn1401     Mn  0.73544900  0.66460437  0.88062441     1.18440
C1402       C  0.63443540  0.67250959  0.79383010     0.97290
C1403       C  0.83793507  0.67724037  0.79235655     0.97950
N1404       N  0.70178693  0.58932553  0.95484101    -0.07200
N1405       N  0.66729367  0.58263722  0.97768044    -0.63510
N1406       N  0.81121523  0.58296577  0.93154171    -0.06010
N1407       N  0.84323717  0.56936702  0.94705042    -0.64190
N1408       N  0.80117132  0.59919794  0.95929234    -0.06710
N1409       N  0.82633207  0.59749791  0.99247720    -0.63780
N1410       N  0.71145243  0.57323624  0.92673913    -0.05610
N1411       N  0.68363993  0.55556142  0.92960814    -0.64470
Mn1412     Mn  0.74273968  0.62133094  0.95896689     1.10660
C1413       C  0.65629152  0.56145428  0.96148497     0.98510
C1414       C  0.85251353  0.57892397  0.98534792     0.98590
N1415       N  0.80011651  0.59892629  0.79704029    -0.06720
N1416       N  0.82796440  0.59802934  0.76537591    -0.62090
N1417       N  0.71077947  0.57375215  0.83046012    -0.06040
N1418       N  0.68317893  0.55601812  0.82821024    -0.58820
N1419       N  0.69975197  0.58987419  0.80298584    -0.07350
N1420       N  0.66425616  0.58297994  0.78134448    -0.61660
N1421       N  0.81074509  0.58335856  0.82571855    -0.06330
N1422       N  0.84595550  0.57110836  0.81302377    -0.58840
Mn1423     Mn  0.74170527  0.62191363  0.79903325     1.20190
Mn1424     Mn  0.76300616  0.57757743  0.87849498     1.10090
Cl1425     Cl  0.74600784  0.62104270  0.87909026    -0.86810
C1426       C  0.85608751  0.58063793  0.77520904     0.95520
C1427       C  0.65418613  0.56168353  0.79775642     0.95320
N1428       N  0.20644744  0.65098408  0.80199980    -0.06970
N1429       N  0.17379664  0.65760804  0.77681423    -0.59090
N1430       N  0.31184307  0.65546406  0.83525733    -0.06650
N1431       N  0.34291099  0.67093641  0.82901178    -0.61220
N1432       N  0.30711116  0.64180494  0.80271296    -0.06250
N1433       N  0.33394729  0.64879959  0.77217070    -0.59060
N1434       N  0.21136414  0.66605084  0.83259835    -0.05920
N1435       N  0.18262430  0.68333650  0.82890364    -0.61570
C1436       C  0.15938735  0.67802894  0.79385376     0.95210
C1437       C  0.35656505  0.66696755  0.78970669     0.94990
N1438       N  0.30654165  0.64220075  0.96102442    -0.07150
N1439       N  0.33364828  0.64943634  0.99138642    -0.59670
N1440       N  0.21268498  0.66554626  0.92966794    -0.05270
N1441       N  0.18470428  0.68295158  0.93222947    -0.60920
N1442       N  0.20648802  0.65079113  0.96031790    -0.07180
N1443       N  0.17325127  0.65780181  0.98437554    -0.59930
N1444       N  0.31129469  0.65575041  0.92838088    -0.04920
N1445       N  0.34215174  0.67142176  0.93468074    -0.61010
Mn1446     Mn  0.26153507  0.66062805  0.88144368     1.18440
C1447       C  0.35615895  0.66765735  0.97386181     0.97290
C1448       C  0.16037374  0.67812117  0.96634038     0.97950
N1449       N  0.28704024  0.58670052  0.80591107    -0.07200
N1450       N  0.32216067  0.58020754  0.78382874    -0.63510
N1451       N  0.17706600  0.58193415  0.82778308    -0.06010
N1452       N  0.14332425  0.56964789  0.81166518    -0.64190
N1453       N  0.18884145  0.59810821  0.80075554    -0.06710
N1454       N  0.16388385  0.59747622  0.76736861    -0.63780
N1455       N  0.27677113  0.57051909  0.83353601    -0.05610
N1456       N  0.30483921  0.55287359  0.83088977    -0.64470
Mn1457     Mn  0.24797146  0.61921322  0.80178298     1.10660
C1458       C  0.33255361  0.55892782  0.79946709     0.98510
C1459       C  0.13551231  0.57982766  0.77361362     0.98590
N1460       N  0.18645429  0.59777559  0.96244157    -0.06720
N1461       N  0.15817885  0.59741305  0.99381964    -0.62090
N1462       N  0.27626537  0.57053840  0.93046563    -0.06040
N1463       N  0.30566308  0.55344097  0.93236102    -0.58820
N1464       N  0.28556576  0.58665002  0.95878828    -0.07350
N1465       N  0.32101842  0.58062643  0.98077528    -0.61660
N1466       N  0.17594894  0.58197665  0.93389110    -0.06330
N1467       N  0.14019928  0.57015549  0.94643249    -0.58840
Mn1468     Mn  0.24679332  0.61914207  0.96215926     1.20190
Mn1469     Mn  0.22454289  0.57520237  0.88147069     1.10090
Cl1470     Cl  0.24465718  0.61811677  0.88186104    -0.86810
C1471       C  0.12969695  0.58020429  0.98390170     0.95520
C1472       C  0.33272801  0.55975990  0.96419232     0.95320
C1473       C  0.48977417  0.75813320  0.75527625    -0.00290
C1474       C  0.48870889  0.73419623  0.75446139    -0.00290
C1475       C  0.49484266  0.73171785  0.01450112    -0.00290
C1476       C  0.49983261  0.75573935  0.51557916    -0.00290
C1477       C  0.49269268  0.91281201  0.89702664    -0.00290
C1478       C  0.49141253  0.91263293  0.85420416    -0.00290
C1479       C  0.99514836  0.56953367  0.65126287    -0.00290
C1480       C  0.99067786  0.56871684  0.60811732    -0.00290
C1481       C  0.49581654  0.50726652  0.48937044    -0.00290
C1482       C  0.49465043  0.48375236  0.49822915    -0.00290
C1483       C  0.49381296  0.50742830  0.76223542    -0.00290
C1484       C  0.49344492  0.48378434  0.75575259    -0.00290
N1485       N  0.29851375  0.39672608  0.54577789    -0.06970
N1486       N  0.30962239  0.41407756  0.52002081    -0.59090
N1487       N  0.32979719  0.34355661  0.57623522    -0.06650
N1488       N  0.36008876  0.32710903  0.57331751    -0.61220
N1489       N  0.30017779  0.34175077  0.54623309    -0.06250
N1490       N  0.31023010  0.32361702  0.52172622    -0.59060
N1491       N  0.32637323  0.39640204  0.57738941    -0.05920
N1492       N  0.35631675  0.41281383  0.57420301    -0.61570
C1493       C  0.34607724  0.42405013  0.53872219     0.95210
C1494       C  0.34805106  0.31473312  0.53937512     0.94990
N1495       N  0.30363778  0.34066932  0.70212446    -0.07150
N1496       N  0.31908107  0.32352009  0.72634314    -0.59670
N1497       N  0.32775920  0.39588931  0.67387475    -0.05270
N1498       N  0.35732677  0.41260090  0.67819013    -0.60920
N1499       N  0.30076292  0.39504539  0.70623845    -0.07180
N1500       N  0.31181167  0.41165316  0.73353384    -0.59930
N1501       N  0.33048857  0.34337663  0.67022015    -0.04920
N1502       N  0.36326528  0.32857032  0.67132567    -0.61010
Mn1503     Mn  0.32826939  0.37006047  0.62442905     1.18440
C1504       C  0.35662058  0.31609180  0.70580730     0.97290
C1505       C  0.34739305  0.42240774  0.71528721     0.97950
N1506       N  0.19225772  0.34146439  0.54891262    -0.07200
N1507       N  0.18248626  0.32326099  0.52463914    -0.63510
N1508       N  0.16130169  0.39583953  0.57591281    -0.06010
N1509       N  0.12428181  0.40556409  0.56154748    -0.64190
N1510       N  0.19118684  0.39469815  0.54550335    -0.06710
N1511       N  0.17490660  0.40395804  0.51092578    -0.63780
N1512       N  0.16277670  0.34317981  0.57931494    -0.05610
N1513       N  0.13317843  0.32634576  0.57688793    -0.64470
Mn1514     Mn  0.24570107  0.36857329  0.54495113     1.10660
C1515       C  0.14544177  0.31407164  0.54291551     0.98510
C1516       C  0.13353268  0.41111734  0.52132166     0.98590
N1517       N  0.19389000  0.39301780  0.71109797    -0.06720
N1518       N  0.17858560  0.40111884  0.74710133    -0.62090
N1519       N  0.16397074  0.34297737  0.67497799    -0.06040
N1520       N  0.13180690  0.32778525  0.67856005    -0.58820
N1521       N  0.19411754  0.34003395  0.70438806    -0.07350
N1522       N  0.18198433  0.32236546  0.72902249    -0.61660
N1523       N  0.16303717  0.39495014  0.68165332    -0.06330
N1524       N  0.12632711  0.40402529  0.69811957    -0.58840
Mn1525     Mn  0.24846185  0.36690740  0.70764553     1.20190
Mn1526     Mn  0.16275912  0.37008517  0.62787519     1.10090
Cl1527     Cl  0.24567009  0.36930415  0.62632140    -0.86810
C1528       C  0.13667010  0.40822170  0.73871336     0.95520
C1529       C  0.14271945  0.31481869  0.71190557     0.95320
N1530       N  0.68527663  0.39596041  0.70789079    -0.06970
N1531       N  0.67446902  0.41360483  0.73300916    -0.59090
N1532       N  0.66028344  0.34146764  0.67890788    -0.06650
N1533       N  0.63074096  0.32481132  0.68413959    -0.61220
N1534       N  0.68956159  0.34170759  0.70946349    -0.06250
N1535       N  0.67983762  0.32506206  0.73685033    -0.59060
N1536       N  0.65677684  0.39469871  0.67670676    -0.05920
N1537       N  0.62664727  0.41125644  0.67935434    -0.61570
C1538       C  0.63797179  0.42302037  0.71422886     0.95210
C1539       C  0.64312058  0.31462809  0.72009312     0.94990
N1540       N  0.68987068  0.33881091  0.55320151    -0.07150
N1541       N  0.67982626  0.32130645  0.52750426    -0.59670
N1542       N  0.65612004  0.39291057  0.57993199    -0.05270
N1543       N  0.62514092  0.40892659  0.57501251    -0.60920
N1544       N  0.68471602  0.39307875  0.54873057    -0.07180
N1545       N  0.67322796  0.40953433  0.52150862    -0.59930
N1546       N  0.66057138  0.33981193  0.58369810    -0.04920
N1547       N  0.63076991  0.32318007  0.58018389    -0.61010
Mn1548     Mn  0.65815767  0.36732314  0.62981792     1.18440
C1549       C  0.64299842  0.31170284  0.54538533     0.97290
C1550       C  0.63596653  0.41925885  0.53872251     0.97950
N1551       N  0.79756663  0.34483569  0.70886474    -0.07200
N1552       N  0.80936670  0.32779263  0.73469503    -0.63510
N1553       N  0.82242029  0.39946575  0.68059455    -0.06010
N1554       N  0.85857697  0.40964917  0.69586034    -0.64190
N1555       N  0.79201214  0.39785624  0.71041702    -0.06710
N1556       N  0.80715992  0.40727433  0.74544659    -0.63780
N1557       N  0.82750499  0.34698651  0.67899374    -0.05610
N1558       N  0.85951185  0.33153009  0.68326443    -0.64470
Mn1559     Mn  0.74084811  0.37001285  0.71053530     1.10660
C1560       C  0.84810357  0.31973655  0.71787149     0.98510
C1561       C  0.84845042  0.41494383  0.73607756     0.98590
N1562       N  0.79133152  0.39494566  0.54638966    -0.06720
N1563       N  0.80478520  0.40406769  0.51071884    -0.62090
N1564       N  0.82803273  0.34524907  0.58335122    -0.06040
N1565       N  0.86039285  0.32984985  0.58169989    -0.58820
N1566       N  0.79873725  0.34174269  0.55329297    -0.07350
N1567       N  0.81172994  0.32368325  0.52982552    -0.61660
N1568       N  0.82216017  0.39770777  0.57556095    -0.06330
N1569       N  0.85719924  0.40843070  0.55918270    -0.58840
Mn1570     Mn  0.74097641  0.36695514  0.54894265     1.20190
Mn1571     Mn  0.82493107  0.37308603  0.62953200     1.10090
Cl1572     Cl  0.74143813  0.36957092  0.62967220    -0.86810
C1573       C  0.84564420  0.41272767  0.51889656     0.95520
C1574       C  0.85033826  0.31649633  0.54847693     0.95320
C1575       C  0.49783941  0.25343774  0.75600090    -0.00290
C1576       C  0.49611284  0.23012477  0.76423904    -0.00290
C1577       C  0.49457846  0.25129430  0.51812540    -0.00290
C1578       C  0.49518040  0.22766113  0.01093089    -0.00290
N1579       N  0.70388734  0.15207372  0.80095815    -0.06970
N1580       N  0.67013189  0.15929592  0.77774428    -0.59090
N1581       N  0.80922158  0.15654499  0.83245333    -0.06650
N1582       N  0.83928326  0.17256673  0.82641319    -0.61220
N1583       N  0.80414192  0.14340338  0.79917873    -0.06250
N1584       N  0.83006105  0.15122176  0.76854205    -0.59060
N1585       N  0.71033563  0.16649196  0.83224762    -0.05920
N1586       N  0.68201745  0.18382419  0.83118077    -0.61570
C1587       C  0.65725872  0.17936186  0.79709999     0.95210
C1588       C  0.85171931  0.16953647  0.78664971     0.94990
N1589       N  0.80715662  0.14214300  0.95718641    -0.07150
N1590       N  0.83607065  0.14921933  0.98628409    -0.59670
N1591       N  0.71023558  0.16591127  0.92828854    -0.05270
N1592       N  0.68021863  0.18262393  0.93110253    -0.60920
N1593       N  0.70545101  0.15072171  0.95852554    -0.07180
N1594       N  0.67138164  0.15672834  0.98259602    -0.59930
N1595       N  0.81001293  0.15594137  0.92481087    -0.04920
N1596       N  0.84094878  0.17156234  0.92978930    -0.61010
Mn1597     Mn  0.75978048  0.16109165  0.87950518     1.18440
C1598       C  0.85708402  0.16774998  0.96789531     0.97290
C1599       C  0.65616647  0.17684752  0.96520023     0.97950
N1600       N  0.78487733  0.08833557  0.79941978    -0.07200
N1601       N  0.82096312  0.08322284  0.77749564    -0.63510
N1602       N  0.67504601  0.08275491  0.82356968    -0.06010
N1603       N  0.63950899  0.07120394  0.80917616    -0.64190
N1604       N  0.68582276  0.09919514  0.79667301    -0.06710
N1605       N  0.65831012  0.09959312  0.76496993    -0.63780
N1606       N  0.77629707  0.07178454  0.82690863    -0.05610
N1607       N  0.80680010  0.05520707  0.82427321    -0.64470
Mn1608     Mn  0.74505593  0.12048517  0.79771715     1.10660
C1609       C  0.83394123  0.06240971  0.79308621     0.98510
C1610       C  0.62922909  0.08243832  0.77269299     0.98590
N1611       N  0.68803440  0.09765179  0.95799185    -0.06720
N1612       N  0.66099575  0.09762293  0.98997174    -0.62090
N1613       N  0.77534162  0.07029754  0.92470077    -0.06040
N1614       N  0.80220630  0.05218524  0.92687361    -0.58820
N1615       N  0.78627352  0.08602745  0.95320562    -0.07350
N1616       N  0.82081948  0.07865084  0.97537486    -0.61660
N1617       N  0.67599757  0.08203331  0.92971741    -0.06330
N1618       N  0.64002734  0.07066558  0.94345667    -0.58840
Mn1619     Mn  0.74755342  0.11889855  0.95821595     1.20190
Mn1620     Mn  0.72383901  0.07565952  0.87611351     1.10090
Cl1621     Cl  0.74384402  0.11880815  0.87794480    -0.86810
C1622       C  0.63088025  0.08113351  0.98106571     0.95520
C1623       C  0.83036525  0.05746441  0.95841017     0.95320
N1624       N  0.28591482  0.15276368  0.95323132    -0.06970
N1625       N  0.31979792  0.15886100  0.97746741    -0.59090
N1626       N  0.18233224  0.15962107  0.92171472    -0.06650
N1627       N  0.14905389  0.17401328  0.92689898    -0.61220
N1628       N  0.18416830  0.14428888  0.95199652    -0.06250
N1629       N  0.15193006  0.14849227  0.97946289    -0.59060
N1630       N  0.28164443  0.16777317  0.92258569    -0.05920
N1631       N  0.31147793  0.18442834  0.92548888    -0.61570
C1632       C  0.33529449  0.17880046  0.95964561     0.95210
C1633       C  0.13004674  0.16708247  0.96269985     0.94990
N1634       N  0.18193457  0.14483821  0.79764743    -0.07150
N1635       N  0.14823329  0.14874446  0.77159118    -0.59670
N1636       N  0.28054852  0.16810991  0.82494896    -0.05270
N1637       N  0.31105403  0.18444973  0.82185620    -0.60920
N1638       N  0.28386018  0.15301944  0.79410201    -0.07180
N1639       N  0.31759153  0.15865185  0.76939341    -0.59930
N1640       N  0.18100660  0.16017313  0.82818045    -0.04920
N1641       N  0.14705647  0.17433841  0.82468480    -0.61010
Mn1642     Mn  0.23187383  0.16408166  0.87439201     1.18440
C1643       C  0.12653817  0.16702833  0.78986328     0.97290
C1644       C  0.33356920  0.17857957  0.78689096     0.97950
N1645       N  0.20320765  0.08852075  0.95051064    -0.07200
N1646       N  0.16787732  0.08155502  0.97206468    -0.63510
N1647       N  0.31387556  0.08387001  0.92701506    -0.06010
N1648       N  0.34862326  0.07160475  0.94088017    -0.64190
N1649       N  0.30275848  0.09961929  0.95536718    -0.06710
N1650       N  0.32955813  0.09886216  0.98773014    -0.63780
N1651       N  0.21411921  0.07254251  0.92258301    -0.05610
N1652       N  0.18653044  0.05473123  0.92442227    -0.64470
Mn1653     Mn  0.24313081  0.12119369  0.95427115     1.10660
C1654       C  0.15796105  0.06025112  0.95543496     0.98510
C1655       C  0.35796715  0.08143631  0.97893044     0.98590
N1656       N  0.30065441  0.09987556  0.79264457    -0.06720
N1657       N  0.32797368  0.09951668  0.76065862    -0.62090
N1658       N  0.21264923  0.07303553  0.82653200    -0.06040
N1659       N  0.18401933  0.05564250  0.82531943    -0.58820
N1660       N  0.20157990  0.08911119  0.79898385    -0.07350
N1661       N  0.16537342  0.08265775  0.77826972    -0.61660
N1662       N  0.31229182  0.08429739  0.82097150    -0.06330
N1663       N  0.34784030  0.07255412  0.80760656    -0.58840
Mn1664     Mn  0.24110964  0.12154910  0.79432649     1.20190
Mn1665     Mn  0.26532955  0.07762648  0.87417057     1.10090
Cl1666     Cl  0.24582737  0.12078022  0.87427543    -0.86810
C1667       C  0.35719697  0.08262665  0.77007183     0.95520
C1668       C  0.15476592  0.06165847  0.79511067     0.95320
C1669       C  0.99186711  0.25582399  0.74729553    -0.00290
C1670       C  0.98935030  0.23191416  0.74582486    -0.00290
C1671       C  0.99753167  0.25239631  0.52752627    -0.00290
C1672       C  0.99415458  0.22851998  0.02661635    -0.00290
C1673       C  0.99176924  0.41592717  0.85750501    -0.00290
C1674       C  0.99056076  0.41801339  0.90019514    -0.00290
C1675       C  0.49366961  0.06427538  0.60429098    -0.00290
C1676       C  0.49379399  0.06495792  0.64742644    -0.00290
C1677       C  0.99460826  0.00719058  0.98873778    -0.00290
C1678       C  0.99377214  0.98329934  0.49343911    -0.00290
C1679       C  0.99369078  0.00715021  0.76950545    -0.00290
C1680       C  0.99440489  0.98325050  0.76476601    -0.00290
C1681       C  0.10420138  0.02899127  0.81278513    -0.27170
C1682       C  0.11395406  0.04777387  0.78611519    -0.15240
C1683       C  0.08405568  0.05295592  0.75320887     0.35390
C1684       C  0.04589087  0.03893461  0.74759119    -0.26620
C1685       C  0.03629254  0.02039737  0.77485179    -0.15850
C1686       C  0.06533448  0.01581684  0.80828290     0.36470
N1687       N  0.05458507  0.99841310  0.83872585    -0.90110
H1688       H  0.12628512  0.02479152  0.83824993     0.17590
H1689       H  0.02293696  0.04272065  0.72232341     0.17580
N1690       N  0.09218447  0.07229499  0.72573317    -0.89130
H1691       H  0.05199509  0.00666350  0.86782383     0.34960
H1692       H  0.08104082  0.98654691  0.84018717     0.40050
H1693       H  0.08766165  0.08759366  0.74317801     0.39670
H1694       H  0.06830555  0.07276600  0.70191399     0.34560
C1695       C  0.08369299  0.05582314  0.98989309    -0.27170
C1696       C  0.11790525  0.04592360  0.96578997    -0.15240
C1697       C  0.11179722  0.02287924  0.95022101     0.35390
C1698       C  0.07132965  0.01133384  0.95651063    -0.26620
C1699       C  0.03726310  0.02083705  0.98151097    -0.15850
C1700       C  0.04397037  0.04359044  0.99810313     0.36470
N1701       N  0.01066526  0.05462714  0.52326933    -0.90110
H1702       H  0.08745371  0.07335184  0.00229040     0.17590
H1703       H  0.06685169  0.99463542  0.94132820     0.17580
N1704       N  0.14637487  0.01012566  0.92930084    -0.89130
H1705       H  0.00130526  0.07020469  0.50874053     0.34960
H1706       H  0.02488687  0.05878945  0.55222806     0.40050
H1707       H  0.17454188  0.00979133  0.94855149     0.39670
H1708       H  0.15420848  0.01823133  0.90116859     0.34560
C1709       C  0.43180060  0.04933240  0.55855769    -0.27170
C1710       C  0.45258165  0.06842721  0.57849034    -0.15240
C1711       C  0.44172869  0.09122885  0.56452525     0.35390
C1712       C  0.41338365  0.09413598  0.03030116    -0.26620
C1713       C  0.39342647  0.07518635  0.00956878    -0.15850
C1714       C  0.40209717  0.05233693  0.52466119     0.36470
N1715       N  0.38065189  0.03192518  0.50785561    -0.90110
H1716       H  0.43915791  0.03179472  0.56898989     0.17590
H1717       H  0.40595905  0.11181283  0.02035092     0.17580
N1718       N  0.45809331  0.11205805  0.58438702    -0.89130
H1719       H  0.40532983  0.02142798  0.49436775     0.34960
H1720       H  0.35810611  0.03606677  0.98424518     0.40050
H1721       H  0.47577303  0.10832735  0.61145289     0.39670
H1722       H  0.47970947  0.12039781  0.06348040     0.34560
C1723       C  0.39596542  0.05515791  0.72138409    -0.27170
C1724       C  0.39407059  0.07709457  0.74125241    -0.15240
C1725       C  0.42040483  0.09553890  0.72557983     0.35390
C1726       C  0.44801983  0.09161519  0.69132980    -0.26620
C1727       C  0.45265895  0.06942066  0.67289140    -0.15850
C1728       C  0.42510336  0.05112028  0.68723011     0.36470
N1729       N  0.42546962  0.02889681  0.66622051    -0.90110
H1730       H  0.37371578  0.04142738  0.73165594     0.17590
H1731       H  0.46784051  0.10613593  0.68083939     0.17580
N1732       N  0.42123701  0.11843076  0.74439554    -0.89130
H1733       H  0.40228782  0.01760964  0.67982603     0.34960
H1734       H  0.45665704  0.02127292  0.67055412     0.40050
H1735       H  0.40457839  0.11900225  0.77303481     0.39670
H1736       H  0.40528612  0.12997393  0.72400602     0.34560
C1737       C  0.02344832  0.20308904  0.79258215    -0.27170
C1738       C  0.02775095  0.21646463  0.75609326    -0.15240
C1739       C  0.06257465  0.21131730  0.72785840     0.35390
C1740       C  0.09293895  0.19333242  0.73726347    -0.26620
C1741       C  0.08828670  0.18012828  0.77389336    -0.15850
C1742       C  0.05263998  0.18478841  0.80142226     0.36470
N1743       N  0.04583150  0.17068726  0.83810493    -0.90110
H1744       H  0.99615258  0.20660715  0.81392516     0.17590
H1745       H  0.12111176  0.19027538  0.71674057     0.17580
N1746       N  0.06694041  0.22394712  0.68955501    -0.89130
H1747       H  0.01617524  0.17534756  0.85317923     0.34960
H1748       H  0.07129718  0.17433231  0.85938720     0.40050
H1749       H  0.06571174  0.21196383  0.66482024     0.39670
H1750       H  0.09843269  0.23176117  0.68923532     0.34560
C1751       C  0.05134330  0.19714929  0.03935378    -0.27170
C1752       C  0.03224920  0.21394816  0.01275670    -0.15240
C1753       C  0.04398483  0.21416797  0.97028925     0.35390
C1754       C  0.07416819  0.19785993  0.95512007    -0.26620
C1755       C  0.09414042  0.18124643  0.98148176    -0.15850
C1756       C  0.08242919  0.18091534  0.02424561     0.36470
N1757       N  0.10167488  0.16470175  0.05304564    -0.90110
H1758       H  0.04258523  0.19662866  0.07208890     0.17590
H1759       H  0.08229829  0.19856952  0.92213523     0.17580
N1760       N  0.02450441  0.23068925  0.94208261    -0.89130
H1761       H  0.13619044  0.16717000  0.05344209     0.34960
H1762       H  0.09468192  0.14777046  0.04262938     0.40050
H1763       H  0.00818009  0.22142849  0.91834243     0.39670
H1764       H  0.05024433  0.24029786  0.92837204     0.34560
C1765       C  0.88497863  0.03984120  0.00841139    -0.27170
C1766       C  0.87126537  0.04382697  0.96709232    -0.15240
C1767       C  0.89750718  0.03494609  0.93387661     0.35390
C1768       C  0.93823570  0.02431781  0.94215244    -0.26620
C1769       C  0.95178675  0.01996149  0.98314643    -0.15850
C1770       C  0.92415105  0.02703552  0.01688058     0.36470
N1771       N  0.93494801  0.02065268  0.55915759    -0.90110
H1772       H  0.86435421  0.04602110  0.53396354     0.17590
H1773       H  0.95879061  0.01854366  0.91618350     0.17580
N1774       N  0.88374081  0.03651724  0.89122564    -0.89130
H1775       H  0.91086173  0.02698020  0.57994850     0.34960
H1776       H  0.96510471  0.02834160  0.56766083     0.40050
H1777       H  0.87504550  0.05382239  0.88540847     0.39670
H1778       H  0.85558560  0.02603302  0.88704869     0.34560
C1779       C  0.87767305  0.03421807  0.75070606    -0.27170
C1780       C  0.87643084  0.05087292  0.78281059    -0.15240
C1781       C  0.91536611  0.05511557  0.80640281     0.35390
C1782       C  0.95101137  0.03948032  0.80320382    -0.26620
C1783       C  0.95192422  0.02170299  0.77257969    -0.15850
C1784       C  0.91618962  0.02074883  0.74361856     0.36470
N1785       N  0.91963987  0.00756259  0.70570489    -0.90110
H1786       H  0.84902146  0.03205179  0.73039779     0.17590
H1787       H  0.97906248  0.04187174  0.82415193     0.17580
N1788       N  0.92010865  0.07502037  0.83367275    -0.89130
H1789       H  0.91758700  0.01919096  0.68063806     0.34960
H1790       H  0.89198672  0.99648821  0.70387182     0.40050
H1791       H  0.89214189  0.08584108  0.83249767     0.39670
H1792       H  0.94675256  0.08498562  0.82252532     0.34560
C1793       C  0.58069785  0.05394480  0.73249881    -0.27170
C1794       C  0.59387064  0.07696302  0.74141876    -0.15240
C1795       C  0.57800530  0.09518827  0.71551373     0.35390
C1796       C  0.55093593  0.09003302  0.68110420    -0.26620
C1797       C  0.53568101  0.06735176  0.67301110    -0.15850
C1798       C  0.55141029  0.04901181  0.69871855     0.36470
N1799       N  0.53738721  0.02548822  0.69057681    -0.90110
H1800       H  0.59362493  0.03983550  0.75144472     0.17590
H1801       H  0.53846256  0.10439092  0.66278209     0.17580
N1802       N  0.58840572  0.11919219  0.72494417    -0.89130
H1803       H  0.55180867  0.01402098  0.71206469     0.34960
H1804       H  0.54946910  0.02078343  0.66104208     0.40050
H1805       H  0.57352470  0.12329151  0.75363329     0.39670
H1806       H  0.57443864  0.13044452  0.70282678     0.34560
C1807       C  0.57768874  0.05305749  0.01662444    -0.27170
C1808       C  0.59544714  0.07559523  0.01210854    -0.15240
C1809       C  0.58330984  0.09292297  0.54165279     0.35390
C1810       C  0.55498122  0.08756659  0.57466892    -0.26620
C1811       C  0.53549524  0.06556058  0.57873452    -0.15850
C1812       C  0.54785958  0.04784202  0.54961048     0.36470
N1813       N  0.53182664  0.02432452  0.55322910    -0.90110
H1814       H  0.58764576  0.03935211  0.99511732     0.17590
H1815       H  0.54588367  0.10161809  0.59531058     0.17580
N1816       N  0.59836939  0.11656958  0.53758777    -0.89130
H1817       H  0.51045911  0.02112627  0.02794002     0.34960
H1818       H  0.51370249  0.02207713  0.58080544     0.40050
H1819       H  0.61550019  0.12113825  0.56492200     0.39670
H1820       H  0.57040461  0.12738252  0.53504816     0.34560
C1821       C  0.90577210  0.18128257  0.02702326    -0.27170
C1822       C  0.88725711  0.18519193  0.98736925    -0.15240
C1823       C  0.89786151  0.20647303  0.96625745     0.35390
C1824       C  0.92887812  0.22157046  0.98312644    -0.26620
C1825       C  0.95060627  0.21664073  0.02048826    -0.15850
C1826       C  0.93705728  0.19694040  0.04407892     0.36470
N1827       N  0.95348026  0.19260967  0.58548522    -0.90110
H1828       H  0.89659106  0.16584596  0.04452023     0.17590
H1829       H  0.93881884  0.23647109  0.96458516     0.17580
N1830       N  0.87927482  0.21343308  0.92685592    -0.89130
H1831       H  0.97259171  0.17735039  0.58459973     0.34960
H1832       H  0.97370723  0.20628848  0.59581529     0.40050
H1833       H  0.84459907  0.21460397  0.92927864     0.39670
H1834       H  0.88909264  0.20180507  0.90331986     0.34560
C1835       C  0.90670684  0.18254946  0.73295585    -0.27170
C1836       C  0.87783346  0.18782201  0.76591048    -0.15240
C1837       C  0.87860879  0.21043603  0.78408770     0.35390
C1838       C  0.91438261  0.22506472  0.77593288    -0.26620
C1839       C  0.94594477  0.21919504  0.74555600    -0.15850
C1840       C  0.93971827  0.19856700  0.72133257     0.36470
N1841       N  0.96720323  0.19306549  0.68594219    -0.90110
H1842       H  0.90490995  0.16570416  0.71749083     0.17590
H1843       H  0.91872807  0.24048838  0.79516076     0.17580
N1844       N  0.84429150  0.21799071  0.81258824    -0.89130
H1845       H  0.98994206  0.18020806  0.69501539     0.34960
H1846       H  0.98488249  0.20775250  0.67619096     0.40050
H1847       H  0.81442253  0.21862920  0.79576444     0.39670
H1848       H  0.85035996  0.23496443  0.82335206     0.34560
C1849       C  0.55595065  0.19858316  0.02755786    -0.27170
C1850       C  0.53744595  0.21505103  0.00000640    -0.15240
C1851       C  0.55875222  0.21903507  0.96144882     0.35390
C1852       C  0.59753374  0.20660532  0.95113584    -0.26620
C1853       C  0.61597756  0.19007959  0.97865311    -0.15850
C1854       C  0.59535257  0.18643301  0.01773029     0.36470
N1855       N  0.61477775  0.17079386  0.04769594    -0.90110
H1856       H  0.54108314  0.19570011  0.05771194     0.17590
H1857       H  0.61287943  0.20974688  0.92101589     0.17580
N1858       N  0.54075509  0.23550351  0.93235675    -0.89130
H1859       H  0.59504285  0.16974442  0.57461793     0.34960
H1860       H  0.64526541  0.17794808  0.05706216     0.40050
H1861       H  0.56518841  0.24806411  0.92632652     0.39670
H1862       H  0.53421229  0.22667385  0.90435743     0.34560
C1863       C  0.43330652  0.22078467  0.96224378    -0.27170
C1864       C  0.45316460  0.21523269  0.00048942    -0.15240
C1865       C  0.43362854  0.19774072  0.02587941     0.35390
C1866       C  0.39553019  0.18602225  0.01156629    -0.26620
C1867       C  0.37517069  0.19197417  0.97352253    -0.15850
C1868       C  0.39406484  0.21019011  0.94921820     0.36470
N1869       N  0.37461328  0.21862969  0.91124744    -0.90110
H1870       H  0.44830911  0.23382075  0.94222044     0.17590
H1871       H  0.38122509  0.17244240  0.53096568     0.17580
N1872       N  0.45014970  0.19177661  0.56663942    -0.89130
H1873       H  0.34275144  0.22509542  0.91767590     0.34960
H1874       H  0.37280842  0.20501297  0.88960489     0.40050
H1875       H  0.47467760  0.20332517  0.57666224     0.39670
H1876       H  0.46425223  0.17510740  0.56473452     0.34560
C1877       C  0.56673738  0.22483519  0.80296607    -0.27170
C1878       C  0.53746574  0.21684468  0.77212830    -0.15240
C1879       C  0.54802512  0.19678605  0.74853790     0.35390
C1880       C  0.58805651  0.18506738  0.75612645    -0.26620
C1881       C  0.61780499  0.19331530  0.78657386    -0.15850
C1882       C  0.60763132  0.21396013  0.80931066     0.36470
N1883       N  0.63869686  0.22397362  0.83861415    -0.90110
H1884       H  0.55794359  0.24002605  0.82153784     0.17590
H1885       H  0.59564720  0.16942555  0.73837523     0.17580
N1886       N  0.51856339  0.18857507  0.71642255    -0.89130
H1887       H  0.62516708  0.23869654  0.85334070     0.34960
H1888       H  0.66616810  0.22984369  0.82148642     0.40050
H1889       H  0.53604065  0.18841474  0.68812096     0.39670
H1890       H  0.50961267  0.17138590  0.72345927     0.34560
C1891       C  0.40722638  0.19095013  0.80924800    -0.27170
C1892       C  0.37623863  0.18967027  0.77664349    -0.15240
C1893       C  0.38474555  0.20145696  0.73863760     0.35390
C1894       C  0.42384853  0.21481232  0.73497323    -0.26620
C1895       C  0.45373563  0.21693081  0.76867492    -0.15850
C1896       C  0.44518740  0.20487069  0.80619186     0.36470
N1897       N  0.47470190  0.20722621  0.84143260    -0.90110
H1898       H  0.40100899  0.18144522  0.83790402     0.17590
H1899       H  0.43088685  0.22363565  0.70577584     0.17580
N1900       N  0.35419904  0.20098853  0.70399002    -0.89130
H1901       H  0.46371546  0.19712579  0.86659030     0.34960
H1902       H  0.47330538  0.22462692  0.85135527     0.40050
H1903       H  0.32616689  0.19086437  0.71049918     0.39670
H1904       H  0.37046901  0.19293896  0.67885681     0.34560
C1905       C  0.90181464  0.43634286  0.47906394    -0.27170
C1906       C  0.87918231  0.41523865  0.48510646    -0.15240
C1907       C  0.88924305  0.39597798  0.95896807     0.35390
C1908       C  0.92369723  0.39772679  0.92928727    -0.26620
C1909       C  0.94784189  0.41848045  0.92442585    -0.15850
C1910       C  0.93547884  0.43819504  0.94846157     0.36470
N1911       N  0.95712865  0.46013471  0.94192346    -0.90110
H1912       H  0.89352022  0.45138326  0.49820894     0.17590
H1913       H  0.93317412  0.38246418  0.91141471     0.17580
N1914       N  0.86515803  0.37444490  0.96351238    -0.89130
H1915       H  0.97113696  0.46549271  0.47032153     0.34960
H1916       H  0.93282209  0.47235169  0.93357824     0.40050
H1917       H  0.87286042  0.36761410  0.49294684     0.39670
H1918       H  0.87560145  0.36225326  0.94115692     0.34560
C1919       C  0.90576475  0.39535895  0.77822144    -0.27170
C1920       C  0.88328891  0.41617369  0.76886140    -0.15240
C1921       C  0.89337354  0.43660256  0.79206515     0.35390
C1922       C  0.92678058  0.43575677  0.82307649    -0.26620
C1923       C  0.95046505  0.41507009  0.83125573    -0.15850
C1924       C  0.93905872  0.39452672  0.80905956     0.36470
N1925       N  0.96198850  0.37295999  0.81713776    -0.90110
H1926       H  0.89732075  0.37958455  0.76107786     0.17590
H1927       H  0.93554914  0.45160697  0.83977519     0.17580
N1928       N  0.87116014  0.45844565  0.78467769    -0.89130
H1929       H  0.95034476  0.35966044  0.79747482     0.34960
H1930       H  0.95451612  0.36785287  0.84764882     0.40050
H1931       H  0.84737630  0.45694873  0.76097929     0.39670
H1932       H  0.89508058  0.47030551  0.77406118     0.34560
C1933       C  0.89097322  0.28098498  0.56886109    -0.27170
C1934       C  0.87965238  0.29662228  0.53690461    -0.15240
C1935       C  0.90521792  0.29637776  0.49988429     0.35390
C1936       C  0.94218902  0.28137101  0.49645880    -0.26620
C1937       C  0.95591210  0.26721033  0.53016249    -0.15850
C1938       C  0.92848000  0.26639581  0.56580301     0.36470
N1939       N  0.93943585  0.25129916  0.59974800    -0.90110
H1940       H  0.87191251  0.28107090  0.59755413     0.17590
H1941       H  0.95990958  0.28097013  0.46714174     0.17580
N1942       N  0.89622547  0.31219603  0.46643630    -0.89130
H1943       H  0.91234433  0.24018152  0.60481188     0.34960
H1944       H  0.94299945  0.26179467  0.62617926     0.40050
H1945       H  0.89965783  0.32912468  0.47816585     0.39670
H1946       H  0.86322160  0.30980303  0.45685391     0.34560
C1947       C  0.90618706  0.30450136  0.76531058    -0.27170
C1948       C  0.87567137  0.30024416  0.73292002    -0.15240
C1949       C  0.88128597  0.28026757  0.70735653     0.35390
C1950       C  0.91903504  0.26623740  0.71248548    -0.26620
C1951       C  0.95083659  0.27088727  0.74371887    -0.15850
C1952       C  0.94341660  0.28987955  0.77112261     0.36470
N1953       N  0.97387046  0.29452817  0.80460788    -0.90110
H1954       H  0.90259323  0.31999419  0.78460894     0.17590
H1955       H  0.92360586  0.25153629  0.69161871     0.17580
N1956       N  0.85011525  0.27414118  0.67493276    -0.89130
H1957       H  0.95603825  0.29408116  0.83269751     0.34960
H1958       H  0.98637378  0.31142877  0.80079407     0.40050
H1959       H  0.82250534  0.28524166  0.67499069     0.39670
H1960       H  0.83778730  0.25750206  0.68170298     0.34560
C1961       C  0.60985829  0.27566234  0.71488996    -0.27170
C1962       C  0.61551475  0.29606008  0.73880204    -0.15240
C1963       C  0.58499174  0.30093053  0.77150603     0.35390
C1964       C  0.54836138  0.28605446  0.77759300    -0.26620
C1965       C  0.54128855  0.26639504  0.75207457    -0.15850
C1966       C  0.57307276  0.26083983  0.72092897     0.36470
N1967       N  0.56697801  0.24080123  0.69434244    -0.90110
H1968       H  0.63251057  0.27223946  0.68915090     0.17590
H1969       H  0.52405778  0.29042524  0.80146296     0.17580
N1970       N  0.58798159  0.32160607  0.79702461    -0.89130
H1971       H  0.59370583  0.23898768  0.67363622     0.34960
H1972       H  0.53837988  0.24342200  0.67634905     0.40050
H1973       H  0.61628508  0.33138380  0.78997513     0.39670
H1974       H  0.59172763  0.31622736  0.82805290     0.34560
C1975       C  0.54517535  0.28337640  0.49346305    -0.27170
C1976       C  0.53726470  0.26488520  0.52133669    -0.15240
C1977       C  0.57013005  0.25961388  0.55161495     0.35390
C1978       C  0.60845448  0.27359564  0.55459003    -0.26620
C1979       C  0.61464901  0.29297366  0.52859264    -0.15850
C1980       C  0.58319184  0.29750362  0.49671050     0.36470
N1981       N  0.58694361  0.31713285  0.46898069    -0.90110
H1982       H  0.52146146  0.28731590  0.96908397     0.17590
H1983       H  0.63195716  0.27052262  0.57976500     0.17580
N1984       N  0.56396628  0.24066498  0.58032227    -0.89130
H1985       H  0.58868705  0.31059352  0.93842646     0.34960
H1986       H  0.61650531  0.32631166  0.47386768     0.40050
H1987       H  0.53773802  0.24494053  0.60026348     0.39670
H1988       H  0.59220630  0.23844253  0.59902674     0.34560
C1989       C  0.08330276  0.43216731  0.78060470    -0.27170
C1990       C  0.10237898  0.41030347  0.77202205    -0.15240
C1991       C  0.08804936  0.39058362  0.79538377     0.35390
C1992       C  0.05524643  0.39338629  0.82635208    -0.26620
C1993       C  0.03453584  0.41498720  0.83340866    -0.15850
C1994       C  0.04943546  0.43467730  0.81096279     0.36470
N1995       N  0.02912206  0.45703917  0.81834521    -0.90110
H1996       H  0.09432946  0.44724946  0.76304759     0.17590
H1997       H  0.04393895  0.37815660  0.84322393     0.17580
N1998       N  0.10456654  0.36732341  0.78777079    -0.89130
H1999       H  0.04350958  0.46974926  0.79922761     0.34960
H2000       H  0.03614317  0.46185423  0.84923314     0.40050
H2001       H  0.12725456  0.36670830  0.76312719     0.39670
H2002       H  0.07756263  0.35700024  0.77840969     0.34560
C2003       C  0.07870189  0.39352568  0.97307399    -0.27170
C2004       C  0.09841259  0.41390677  0.48914143    -0.15240
C2005       C  0.08531986  0.43581968  0.47286867     0.35390
C2006       C  0.05263128  0.43669765  0.94122508    -0.26620
C2007       C  0.03171498  0.41632428  0.92639352    -0.15850
C2008       C  0.04536445  0.39456191  0.94230587     0.36470
N2009       N  0.02470063  0.37346223  0.92791436    -0.90110
H2010       H  0.08886122  0.37662756  0.98497629     0.17590
H2011       H  0.04255479  0.45351495  0.92911878     0.17580
N2012       N  0.10393527  0.45743360  0.48777898    -0.89130
H2013       H  0.01035392  0.36515419  0.95368294     0.34960
H2014       H  0.04961786  0.36251402  0.91605655     0.40050
H2015       H  0.12753211  0.45465463  0.51123882     0.39670
H2016       H  0.07807235  0.46704445  0.50144606     0.34560
C2017       C  0.08368969  0.28783065  0.69223190    -0.27170
C2018       C  0.11212609  0.29544691  0.72460459    -0.15240
C2019       C  0.10300121  0.28762687  0.76605911     0.35390
C2020       C  0.06527705  0.27320096  0.77316536    -0.26620
C2021       C  0.03522036  0.26795021  0.74059618    -0.15850
C2022       C  0.04428998  0.27605496  0.70040581     0.36470
N2023       N  0.01188093  0.27345220  0.66795428    -0.90110
H2024       H  0.08953844  0.29300315  0.66009267     0.17590
H2025       H  0.05786675  0.26737239  0.80461358     0.17580
N2026       N  0.12878439  0.29478018  0.80173643    -0.89130
H2027       H  0.02630534  0.26428882  0.64344066     0.34960
H2028       H  0.00337181  0.29006632  0.65707969     0.40050
H2029       H  0.15515689  0.30555778  0.79334716     0.39670
H2030       H  0.14290483  0.27977538  0.81473991     0.34560
C2031       C  0.05241281  0.27993889  0.49358929    -0.27170
C2032       C  0.04249015  0.26439079  0.52642401    -0.15240
C2033       C  0.07530250  0.26137672  0.55812219     0.35390
C2034       C  0.11267770  0.27605518  0.55907303    -0.26620
C2035       C  0.11911782  0.29361296  0.52925254    -0.15850
C2036       C  0.08984780  0.29469764  0.49471737     0.36470
N2037       N  0.09505298  0.31154568  0.96181279    -0.90110
H2038       H  0.03072890  0.28116028  0.96685140     0.17590
H2039       H  0.13504353  0.27503231  0.58568160     0.17580
N2040       N  0.07118510  0.24480817  0.59145891    -0.89130
H2041       H  0.09916994  0.30230547  0.93379945     0.34960
H2042       H  0.12397433  0.32140323  0.46577239     0.40050
H2043       H  0.09588845  0.23211627  0.58749518     0.39670
H2044       H  0.04031789  0.23655963  0.59181211     0.34560
C2045       C  0.38717429  0.27917067  0.55997969    -0.27170
C2046       C  0.37424435  0.29374877  0.52692951    -0.15240
C2047       C  0.39731400  0.29175301  0.48840858     0.35390
C2048       C  0.43466023  0.27679310  0.48560423    -0.26620
C2049       C  0.45109937  0.26464907  0.52074405    -0.15850
C2050       C  0.42614557  0.26581883  0.55818564     0.36470
N2051       N  0.44111561  0.25519534  0.59603341    -0.90110
H2052       H  0.36913382  0.28002591  0.58932142     0.17590
H2053       H  0.45188817  0.27542521  0.95592583     0.17580
N2054       N  0.38576799  0.30543960  0.45241196    -0.89130
H2055       H  0.47186839  0.26247882  0.60391302     0.34960
H2056       H  0.44480757  0.23736866  0.59092914     0.40050
H2057       H  0.35761527  0.31564868  0.45799420     0.39670
H2058       H  0.37709637  0.29382854  0.42843282     0.34560
C2059       C  0.38722344  0.28704341  0.75764056    -0.27170
C2060       C  0.39016244  0.29835396  0.71872301    -0.15240
C2061       C  0.42767856  0.29333380  0.69252957     0.35390
C2062       C  0.45912116  0.27726621  0.70491973    -0.26620
C2063       C  0.45765806  0.26698184  0.74412451    -0.15850
C2064       C  0.42144776  0.27177981  0.77115029     0.36470
N2065       N  0.42019170  0.26175518  0.81225116    -0.90110
H2066       H  0.35938690  0.29084593  0.77813906     0.17590
H2067       H  0.48695229  0.27387733  0.68417396     0.17580
N2068       N  0.43712468  0.30489569  0.65383091    -0.89130
H2069       H  0.39147433  0.26708448  0.82816848     0.34960
H2070       H  0.44735296  0.26835455  0.82903223     0.40050
H2071       H  0.44253787  0.32267217  0.65932755     0.39670
H2072       H  0.41110748  0.30219976  0.63283900     0.34560
C2073       C  0.43492101  0.45493770  0.77850866    -0.27170
C2074       C  0.45063179  0.47073390  0.74824075    -0.15240
C2075       C  0.42679596  0.47259669  0.71010122     0.35390
C2076       C  0.38958853  0.45834234  0.70310824    -0.26620
C2077       C  0.37560234  0.44154044  0.73224569    -0.15850
C2078       C  0.39810339  0.44028529  0.77114246     0.36470
N2079       N  0.38658835  0.42374796  0.80309570    -0.90110
H2080       H  0.45208572  0.45319574  0.80794149     0.17590
H2081       H  0.37331480  0.45922095  0.67283607     0.17580
N2082       N  0.44089489  0.48732669  0.67630461    -0.89130
H2083       H  0.41303906  0.41195649  0.80585210     0.34960
H2084       H  0.35841542  0.41406333  0.79542226     0.40050
H2085       H  0.46993255  0.49649613  0.68320292     0.39670
H2086       H  0.41567671  0.49952333  0.67072787     0.34560
C2087       C  0.59064449  0.44125279  0.76923927    -0.27170
C2088       C  0.61032490  0.44249899  0.72962327    -0.15240
C2089       C  0.59556485  0.45950865  0.70100271     0.35390
C2090       C  0.55840054  0.47338557  0.71085024    -0.26620
C2091       C  0.53591898  0.47067859  0.74895524    -0.15850
C2092       C  0.55365162  0.45531148  0.77922675     0.36470
N2093       N  0.53418062  0.45377408  0.81998489    -0.90110
H2094       H  0.60206591  0.42831870  0.79146941     0.17590
H2095       H  0.54606339  0.48578994  0.68813857     0.17580
N2096       N  0.61757690  0.46191518  0.66131561    -0.89130
H2097       H  0.55873863  0.45791440  0.84201379     0.34960
H2098       H  0.52473042  0.43642597  0.82491697     0.40050
H2099       H  0.65055979  0.46679081  0.66727679     0.39670
H2100       H  0.60349203  0.47559759  0.64438589     0.34560
C2101       C  0.40280036  0.45294718  0.55679314    -0.27170
C2102       C  0.37569368  0.44361503  0.52474485    -0.15240
C2103       C  0.38525441  0.45012994  0.48273868     0.35390
C2104       C  0.42295197  0.46427786  0.47454072    -0.26620
C2105       C  0.45186662  0.47134961  0.50689505    -0.15850
C2106       C  0.44155873  0.46546645  0.54832233     0.36470
N2107       N  0.47159061  0.47148158  0.58172894    -0.90110
H2108       H  0.39558396  0.44906164  0.58925612     0.17590
H2109       H  0.43082286  0.46892102  0.44254587     0.17580
N2110       N  0.35894524  0.44257695  0.44769461    -0.89130
H2111       H  0.46144051  0.46390750  0.60982195     0.34960
H2112       H  0.47067075  0.48957543  0.58590943     0.40050
H2113       H  0.33044418  0.43367143  0.45693819     0.39670
H2114       H  0.37832853  0.43103051  0.42997598     0.34560
C2115       C  0.54110756  0.44861901  0.48090034    -0.27170
C2116       C  0.53594504  0.46920741  0.50456011    -0.15240
C2117       C  0.56758195  0.47424811  0.53599549     0.35390
C2118       C  0.60277030  0.45858744  0.54363260    -0.26620
C2119       C  0.60736161  0.43776621  0.52062375    -0.15850
C2120       C  0.57625477  0.43290435  0.48837573     0.36470
N2121       N  0.57788671  0.41180811  0.46388011    -0.90110
H2122       H  0.51689802  0.44444996  0.45683177     0.17590
H2123       H  0.62540820  0.46212820  0.56930910     0.17580
N2124       N  0.56265815  0.49453628  0.56189412    -0.89130
H2125       H  0.54960954  0.40196140  0.47118076     0.34960
H2126       H  0.60555002  0.40160167  0.47130555     0.40050
H2127       H  0.59217715  0.50419482  0.56025760     0.39670
H2128       H  0.55833404  0.48912109  0.59276201     0.34560
C2129       C  0.41976221  0.52088458  0.01439440    -0.27170
C2130       C  0.45408578  0.52171352  0.98432890    -0.15240
C2131       C  0.44963043  0.53772095  0.95089606     0.35390
C2132       C  0.40978288  0.55010036  0.94563289    -0.26620
C2133       C  0.37449841  0.54758521  0.97375415    -0.15850
C2134       C  0.37979635  0.53325475  0.00923172     0.36470
N2135       N  0.34567236  0.53075694  0.04050502    -0.90110
H2136       H  0.42384418  0.51079738  0.54251894     0.17590
H2137       H  0.40633152  0.56175994  0.91915918     0.17580
N2138       N  0.48582357  0.54211817  0.92280459    -0.89130
H2139       H  0.33534833  0.51332172  0.54020247     0.34960
H2140       H  0.31761944  0.54082674  0.03368518     0.40050
H2141       H  0.49602805  0.55939069  0.92744617     0.39670
H2142       H  0.47370141  0.54116721  0.89230830     0.34560
C2143       C  0.39348030  0.53225385  0.81940185    -0.27170
C2144       C  0.37216376  0.54503219  0.78768943    -0.15240
C2145       C  0.38996347  0.54445861  0.74658769     0.35390
C2146       C  0.43007663  0.53257866  0.73936621    -0.26620
C2147       C  0.45151416  0.52006745  0.77117168    -0.15850
C2148       C  0.43236278  0.51960404  0.81145154     0.36470
N2149       N  0.45179780  0.50653449  0.84495203    -0.90110
H2150       H  0.38009551  0.53225204  0.85091120     0.17590
H2151       H  0.44360697  0.53263122  0.70809369     0.17580
N2152       N  0.36808388  0.55494155  0.71121824    -0.89130
H2153       H  0.48503621  0.51152419  0.84830067     0.34960
H2154       H  0.45131487  0.48890196  0.83708063     0.40050
H2155       H  0.33575526  0.56015948  0.71848680     0.39670
H2156       H  0.36391989  0.54191029  0.68853243     0.34560
C2157       C  0.09987635  0.59008861  0.70675801    -0.27170
C2158       C  0.10303379  0.57365058  0.73957483    -0.15240
C2159       C  0.07620059  0.55331203  0.73676478     0.35390
C2160       C  0.04487400  0.55150096  0.70401049    -0.26620
C2161       C  0.03894678  0.56924742  0.67388413    -0.15850
C2162       C  0.06807818  0.58865658  0.67506337     0.36470
N2163       N  0.06506265  0.60812274  0.64686118    -0.90110
H2164       H  0.12063272  0.60556041  0.70665974     0.17590
H2165       H  0.02280893  0.53651205  0.70353032     0.17580
N2166       N  0.07862722  0.53434948  0.76602787    -0.89130
H2167       H  0.06213271  0.62340016  0.66470198     0.34960
H2168       H  0.03590842  0.60744750  0.62961131     0.40050
H2169       H  0.10450156  0.53645739  0.78726102     0.39670
H2170       H  0.08646999  0.51923656  0.74909613     0.34560
C2171       C  0.05996652  0.59186426  0.01725568    -0.27170
C2172       C  0.09204354  0.57442429  0.01192292    -0.15240
C2173       C  0.09305500  0.55552579  0.54053372     0.35390
C2174       C  0.06159890  0.55464138  0.57341844    -0.26620
C2175       C  0.02941656  0.57227057  0.57874299    -0.15850
C2176       C  0.02900956  0.59117565  0.54983117     0.36470
N2177       N  0.99867865  0.61054273  0.55312280    -0.90110
H2178       H  0.06009610  0.60689320  0.99667767     0.17590
H2179       H  0.06164367  0.53981515  0.59438093     0.17580
N2180       N  0.12595696  0.53732523  0.53791434    -0.89130
H2181       H  0.97560512  0.60913977  0.52872343     0.34960
H2182       H  0.98119657  0.61053063  0.58120827     0.40050
H2183       H  0.14712641  0.53971829  0.01238937     0.39670
H2184       H  0.10910943  0.52161629  0.53253753     0.34560
C2185       C  0.38550098  0.70758928  0.97466260    -0.27170
C2186       C  0.38471186  0.68555851  0.99449345    -0.15240
C2187       C  0.41466698  0.68152471  0.02790323     0.35390
C2188       C  0.44634285  0.69876300  0.03760805    -0.26620
C2189       C  0.45102141  0.71917459  0.01333616    -0.15850
C2190       C  0.41956145  0.72370739  0.98174730     0.36470
N2191       N  0.42398169  0.74367183  0.95482248    -0.90110
H2192       H  0.36161187  0.71157177  0.95029506     0.17590
H2193       H  0.47047367  0.69501522  0.56179921     0.17580
N2194       N  0.41687232  0.65993142  0.55058446    -0.89130
H2195       H  0.39764526  0.74454114  0.93345805     0.34960
H2196       H  0.45302152  0.74157023  0.93716152     0.40050
H2197       H  0.39383893  0.64773448  0.53998789     0.39670
H2198       H  0.40885910  0.66356233  0.58177206     0.34560
C2199       C  0.37903357  0.70763203  0.78699241    -0.27170
C2200       C  0.38233670  0.68537531  0.76837037    -0.15240
C2201       C  0.41494753  0.68162897  0.73720661     0.35390
C2202       C  0.44547936  0.69960208  0.72892610    -0.26620
C2203       C  0.44688535  0.72010732  0.75365173    -0.15850
C2204       C  0.41252365  0.72408886  0.78267735     0.36470
N2205       N  0.41347921  0.74345383  0.81113861    -0.90110
H2206       H  0.35305723  0.71143137  0.80960432     0.17590
H2207       H  0.47062416  0.69653322  0.70533106     0.17580
N2208       N  0.42000294  0.65990370  0.71505072    -0.89130
H2209       H  0.41442603  0.73700012  0.84168763     0.34960
H2210       H  0.38358317  0.75266245  0.80779731     0.40050
H2211       H  0.39575469  0.64780937  0.72337537     0.39670
H2212       H  0.45075450  0.65275410  0.72358741     0.34560
C2213       C  0.56415846  0.51448900  0.80141109    -0.27170
C2214       C  0.53648811  0.52069825  0.76816744    -0.15240
C2215       C  0.54900330  0.53977573  0.74267893     0.35390
C2216       C  0.58748395  0.55290278  0.75271012    -0.26620
C2217       C  0.61471038  0.54688981  0.78678079    -0.15850
C2218       C  0.60290563  0.52686002  0.81057441     0.36470
N2219       N  0.62858922  0.51878917  0.84526263    -0.90110
H2220       H  0.55520828  0.49994546  0.82114569     0.17590
H2221       H  0.59635261  0.56779096  0.73363806     0.17580
N2222       N  0.52325330  0.54555692  0.70633932    -0.89130
H2223       H  0.63015044  0.53226064  0.86723147     0.34960
H2224       H  0.66049698  0.51426660  0.83491648     0.40050
H2225       H  0.52572821  0.53152120  0.68545314     0.39670
H2226       H  0.53673496  0.56005948  0.69112408     0.34560
C2227       C  0.54577414  0.54068342  0.00777176    -0.27170
C2228       C  0.53904904  0.51998000  0.98476839    -0.15240
C2229       C  0.57175728  0.51282495  0.95595936     0.35390
C2230       C  0.61122004  0.52558980  0.95240523    -0.26620
C2231       C  0.61696871  0.54707685  0.97311774    -0.15850
C2232       C  0.58383816  0.55464025  0.00155461     0.36470
N2233       N  0.58835066  0.57643948  0.52356636    -0.90110
H2234       H  0.52036808  0.54635667  0.52966553     0.17590
H2235       H  0.63696739  0.51888932  0.93199475     0.17580
N2236       N  0.56404176  0.49342556  0.92849140    -0.89130
H2237       H  0.56219371  0.57867409  0.54482817     0.34960
H2238       H  0.58501375  0.58980502  0.00159792     0.40050
H2239       H  0.59051362  0.48169123  0.93180024     0.39670
H2240       H  0.56445276  0.49958685  0.89778660     0.34560
C2241       C  0.87897054  0.58266343  0.55790046    -0.27170
C2242       C  0.88290188  0.57053628  0.01948380    -0.15240
C2243       C  0.91666594  0.55323831  0.01633003     0.35390
C2244       C  0.94741071  0.55085735  0.54942386    -0.26620
C2245       C  0.94721946  0.56579036  0.58483743    -0.15850
C2246       C  0.91105711  0.58127296  0.58934297     0.36470
N2247       N  0.90833689  0.59746944  0.62336306    -0.90110
H2248       H  0.85241270  0.59518301  0.56288817     0.17590
H2249       H  0.97441442  0.53845127  0.54560539     0.17580
N2250       N  0.92285051  0.53853484  0.98024205    -0.89130
H2251       H  0.87819639  0.59463470  0.63898079     0.34960
H2252       H  0.90765213  0.61441503  0.61128554     0.40050
H2253       H  0.89820029  0.54091900  0.95791706     0.39670
H2254       H  0.91977748  0.52121293  0.99007419     0.34560
C2255       C  0.92232726  0.59381131  0.73832234    -0.27170
C2256       C  0.89437956  0.57504405  0.74778290    -0.15240
C2257       C  0.89815272  0.55412212  0.72405352     0.35390
C2258       C  0.92961927  0.55282100  0.69119404    -0.26620
C2259       C  0.95705404  0.57193859  0.68139975    -0.15850
C2260       C  0.95334004  0.59260024  0.70574257     0.36470
N2261       N  0.98045385  0.61263777  0.69666181    -0.90110
H2262       H  0.91868942  0.61002500  0.75565731     0.17590
H2263       H  0.93306108  0.53672771  0.67355674     0.17580
N2264       N  0.86996184  0.53426543  0.73134012    -0.89130
H2265       H  0.97471283  0.62609532  0.71820058     0.34960
H2266       H  0.97075020  0.61904560  0.66749976     0.40050
H2267       H  0.84809856  0.53724688  0.75616494     0.40630
H2268       H  0.89046462  0.52039267  0.74033510     0.34560
C2269       C  0.57555486  0.69999644  0.81212166    -0.27170
C2270       C  0.59688686  0.68735135  0.78007449    -0.15240
C2271       C  0.58524165  0.69193113  0.73815541     0.35390
C2272       C  0.55210145  0.70868286  0.72968619    -0.26620
C2273       C  0.52946003  0.72020612  0.76251802    -0.15850
C2274       C  0.54128678  0.71562644  0.80407303     0.36470
N2275       N  0.51757950  0.72636670  0.83817361    -0.90110
H2276       H  0.58559070  0.69765514  0.84423964     0.17590
H2277       H  0.54304526  0.71222082  0.69751157     0.17580
N2278       N  0.60694279  0.68041009  0.70397402    -0.89130
H2279       H  0.53315487  0.72287728  0.86674054     0.34960
H2280       H  0.48630901  0.71843325  0.83970352     0.40050
H2281       H  0.60183362  0.66244240  0.70701981     0.39670
H2282       H  0.64113736  0.68373662  0.70604185     0.34560
C2283       C  0.59342056  0.68944396  0.02217462    -0.27170
C2284       C  0.59003308  0.67846081  0.98309110    -0.15240
C2285       C  0.55489990  0.68445768  0.95599018     0.35390
C2286       C  0.52839495  0.70367110  0.96545118    -0.26620
C2287       C  0.53212932  0.71545183  0.00391739    -0.15850
C2288       C  0.56308587  0.70708976  0.03385020     0.36470
N2289       N  0.56343927  0.71610529  0.57580746    -0.90110
H2290       H  0.62020202  0.68458619  0.04317321     0.17590
H2291       H  0.50244096  0.70846257  0.94353347     0.17580
N2292       N  0.54382628  0.67066989  0.91976588    -0.89130
H2293       H  0.58836242  0.70807576  0.59354503     0.34960
H2294       H  0.53313435  0.71191411  0.58994227     0.40050
H2295       H  0.56510409  0.65636472  0.91621284     0.39670
H2296       H  0.54702287  0.68113372  0.89341438     0.34560
C2297       C  0.92605771  0.71113311  0.02912327    -0.27170
C2298       C  0.95665008  0.71404545  0.99625772    -0.15240
C2299       C  0.94756838  0.70390275  0.95695207     0.35390
C2300       C  0.90799139  0.69205293  0.95048560    -0.26620
C2301       C  0.87707172  0.68923928  0.98272416    -0.15850
C2302       C  0.88625407  0.69857762  0.02293718     0.36470
N2303       N  0.85563368  0.69663482  0.55731588    -0.90110
H2304       H  0.93308660  0.71871937  0.55953336     0.17590
H2305       H  0.90131692  0.68489974  0.91963764     0.17580
N2306       N  0.97737495  0.70601440  0.92236330    -0.89130
H2307       H  0.87123533  0.68678768  0.58059142     0.34960
H2308       H  0.82682464  0.68761225  0.54877672     0.40050
H2309       H  0.98576168  0.72359325  0.91855657     0.39670
H2310       H  0.00601231  0.69621326  0.92822210     0.34560
C2311       C  0.06996688  0.72348315  0.96483648    -0.27170
C2312       C  0.04063643  0.71482838  0.99496068    -0.15240
C2313       C  0.05124884  0.69428079  0.01695738     0.35390
C2314       C  0.09132733  0.68274082  0.00789413    -0.26620
C2315       C  0.12098165  0.69177843  0.97808038    -0.15850
C2316       C  0.11051780  0.71298571  0.95754224     0.36470
N2317       N  0.13997606  0.72458725  0.92916316    -0.90110
H2318       H  0.06123144  0.73869519  0.94651492     0.17590
H2319       H  0.09910156  0.66656596  0.02379083     0.17580
N2320       N  0.02128739  0.68521572  0.04801043    -0.89130
H2321       H  0.14379177  0.71438416  0.90235764     0.34960
H2322       H  0.17069137  0.72730982  0.94384861     0.40050
H2323       H  0.01949523  0.69742284  0.07235741     0.39670
H2324       H  0.03396449  0.66983685  0.06094131     0.34560
C2325       C  0.44703227  0.93287405  0.95189735    -0.27170
C2326       C  0.45181699  0.91397807  0.92389395    -0.15240
C2327       C  0.42223132  0.89496656  0.92733522     0.35390
C2328       C  0.38841701  0.89539993  0.45765104    -0.26620
C2329       C  0.38426745  0.91401680  0.48618300    -0.15850
C2330       C  0.41412259  0.93303258  0.98327336     0.36470
N2331       N  0.41195461  0.95279560  0.01106095    -0.90110
H2332       H  0.46994929  0.94744597  0.95013363     0.17590
H2333       H  0.36638715  0.88045705  0.46012584     0.17580
N2334       N  0.42776995  0.87455271  0.90189835    -0.89130
H2335       H  0.44142021  0.95307362  0.02853463     0.34960
H2336       H  0.38567774  0.95131818  0.53227222     0.40050
H2337       H  0.39792389  0.87167563  0.88578233     0.39670
H2338       H  0.43281990  0.86028656  0.92167071     0.34560
C2339       C  0.43443374  0.89170645  0.81189276    -0.27170
C2340       C  0.44894174  0.91275815  0.82982005    -0.15240
C2341       C  0.42818565  0.93383171  0.81776337     0.35390
C2342       C  0.39417692  0.93342427  0.78713764    -0.26620
C2343       C  0.38082442  0.91232842  0.76858861    -0.15850
C2344       C  0.40054217  0.89122240  0.78170554     0.36470
N2345       N  0.38625821  0.86932196  0.76402889    -0.90110
H2346       H  0.45050209  0.87552595  0.82063246     0.17590
H2347       H  0.37860428  0.94955949  0.77725357     0.17580
N2348       N  0.44291192  0.95558805  0.83544093    -0.89130
H2349       H  0.40352327  0.85548759  0.77779099     0.34960
H2350       H  0.39513401  0.86920251  0.73241160     0.40050
H2351       H  0.43550540  0.95530692  0.86737890     0.39670
H2352       H  0.42498588  0.96950719  0.82267831     0.34560
C2353       C  0.08127220  0.93440195  0.77055721    -0.27170
C2354       C  0.10917203  0.94029524  0.73709174    -0.15240
C2355       C  0.10384601  0.96203466  0.71738374     0.35390
C2356       C  0.06802773  0.97654998  0.72877343    -0.26620
C2357       C  0.03776265  0.97002544  0.76033385    -0.15850
C2358       C  0.04606414  0.94910978  0.78281410     0.36470
N2359       N  0.01938272  0.94215870  0.81794181    -0.90110
H2360       H  0.08548042  0.91772309  0.78598892     0.17590
H2361       H  0.06197597  0.99226353  0.71091481     0.17580
N2362       N  0.13387521  0.96879871  0.68459428    -0.89130
H2363       H  0.99964050  0.92805627  0.80847581     0.34960
H2364       H  0.99825815  0.95556467  0.82780482     0.40050
H2365       H  0.16568585  0.97023463  0.69771601     0.39670
H2366       H  0.12563981  0.98538812  0.67341017     0.34560
C2367       C  0.08652692  0.93751936  0.48375596    -0.27170
C2368       C  0.11176669  0.94227543  0.51965445    -0.15240
C2369       C  0.10022015  0.96175088  0.54489035     0.35390
C2370       C  0.06238283  0.97500365  0.53520513    -0.26620
C2371       C  0.03559728  0.96953092  0.50061463    -0.15850
C2372       C  0.04859792  0.95097000  0.47387634     0.36470
N2373       N  0.02318080  0.94571863  0.93699873    -0.90110
H2374       H  0.09475032  0.92237213  0.46484017     0.17590
H2375       H  0.05312671  0.98939711  0.55555779     0.17580
N2376       N  0.12526909  0.96813105  0.58147223    -0.89130
H2377       H  0.03608527  0.93102925  0.92170592     0.34960
H2378       H  0.02721594  0.95968259  0.91638464     0.40050
H2379       H  0.15432294  0.95822713  0.58438717     0.39670
H2380       H  0.10516351  0.96449119  0.60730748     0.34560
C2381       C  0.42342091  0.76501844  0.54691911    -0.27170
C2382       C  0.45988975  0.77218742  0.52201875    -0.15240
C2383       C  0.45609303  0.79451501  0.50270335     0.35390
C2384       C  0.41612021  0.80734532  0.50539256    -0.26620
C2385       C  0.37925844  0.79915478  0.52769775    -0.15850
C2386       C  0.38299384  0.77747799  0.54835052     0.36470
N2387       N  0.34675284  0.76783624  0.57208446    -0.90110
H2388       H  0.42590523  0.74940911  0.56570635     0.17590
H2389       H  0.41501968  0.82475375  0.49214654     0.17580
N2390       N  0.49297413  0.80526647  0.48213869    -0.89130
H2391       H  0.33856564  0.75173395  0.55859789     0.34960
H2392       H  0.31817489  0.77816475  0.56972323     0.40050
H2393       H  0.50063671  0.82075478  0.49800879     0.39670
H2394       H  0.48311351  0.80969152  0.45178867     0.34560
C2395       C  0.39303085  0.80176725  0.76340702    -0.27170
C2396       C  0.36977534  0.79714036  0.72644903    -0.15240
C2397       C  0.38480947  0.77898739  0.69976868     0.35390
C2398       C  0.42412179  0.76694900  0.70947761    -0.26620
C2399       C  0.44859820  0.77210619  0.74581688    -0.15850
C2400       C  0.43249772  0.78975453  0.77299398     0.36470
N2401       N  0.45546217  0.79540470  0.81079895    -0.90110
H2402       H  0.38202727  0.81577002  0.78380369     0.17590
H2403       H  0.43583134  0.75348749  0.68822058     0.17580
N2404       N  0.36152873  0.77267357  0.66209925    -0.89130
H2405       H  0.43368137  0.79275392  0.83587177     0.34960
H2406       H  0.46364524  0.81314978  0.81002547     0.40050
H2407       H  0.33173813  0.78195509  0.65915893     0.39670
H2408       H  0.35234436  0.75512403  0.66470313     0.34560
C2409       C  0.04672354  0.78387372  0.48377283    -0.27170
C2410       C  0.04101530  0.76491799  0.51097537    -0.15240
C2411       C  0.07348540  0.76054950  0.54202941     0.35390
C2412       C  0.11009395  0.77567504  0.54576841    -0.26620
C2413       C  0.11422285  0.79544370  0.52030502    -0.15850
C2414       C  0.08281758  0.79922480  0.48802168     0.36470
N2415       N  0.08455320  0.81925071  0.96104729    -0.90110
H2416       H  0.02185874  0.78726103  0.95993202     0.17590
H2417       H  0.13372985  0.77313095  0.57096645     0.17580
N2418       N  0.06824871  0.74146637  0.57073736    -0.89130
H2419       H  0.08758943  0.81310999  0.93033059     0.34960
H2420       H  0.11285886  0.82934894  0.46674117     0.40050
H2421       H  0.04025053  0.74477140  0.58925535     0.39670
H2422       H  0.09549989  0.74041275  0.59101043     0.34560
C2423       C  0.06252426  0.76127788  0.69952289    -0.27170
C2424       C  0.03475071  0.76531536  0.73403146    -0.15240
C2425       C  0.04655996  0.78271331  0.76337719     0.35390
C2426       C  0.08439609  0.79660812  0.75655257    -0.26620
C2427       C  0.11059889  0.79347941  0.72073689    -0.15850
C2428       C  0.10040056  0.77502653  0.69263338     0.36470
N2429       N  0.12689801  0.77028294  0.65608364    -0.90110
H2430       H  0.05422599  0.74758712  0.67732933     0.17590
H2431       H  0.09148725  0.81091683  0.77783490     0.17580
N2432       N  0.02022122  0.78634142  0.80014820    -0.89130
H2433       H  0.13880463  0.75318402  0.65862288     0.34960
H2434       H  0.15515426  0.78089727  0.65503795     0.40050
H2435       H  0.00900827  0.80363150  0.80013676     0.39670
H2436       H  0.04076498  0.78407432  0.82624996     0.34560
C2437       C  0.92752913  0.70536946  0.72465924    -0.27170
C2438       C  0.95681397  0.71342006  0.75577608    -0.15240
C2439       C  0.94674308  0.70934988  0.79778555     0.35390
C2440       C  0.90809896  0.69723733  0.80854329    -0.26620
C2441       C  0.87836124  0.68930282  0.77772190    -0.15850
C2442       C  0.88787415  0.69376100  0.73499491     0.36470
N2443       N  0.85797289  0.68771547  0.70143651    -0.90110
H2444       H  0.93469911  0.70832014  0.69208384     0.17590
H2445       H  0.90125922  0.69413281  0.84135365     0.17580
N2446       N  0.97594722  0.71779893  0.82966771    -0.89130
H2447       H  0.84984878  0.70314160  0.68575718     0.34960
H2448       H  0.82777754  0.68125718  0.71244597     0.40050
H2449       H  0.98818674  0.70330109  0.84567574     0.39670
H2450       H  0.95743780  0.72838365  0.84993526     0.34560
C2451       C  0.06898990  0.72443429  0.78544784    -0.27170
C2452       C  0.04158579  0.71545878  0.75360697    -0.15240
C2453       C  0.05531177  0.69480978  0.73252023     0.35390
C2454       C  0.09364327  0.68290260  0.74622588    -0.26620
C2455       C  0.12071114  0.69190442  0.77834962    -0.15850
C2456       C  0.10933403  0.71370648  0.79634656     0.36470
N2457       N  0.13869240  0.72505560  0.82551832    -0.90110
H2458       H  0.05869967  0.73992171  0.80233757     0.17590
H2459       H  0.10249774  0.66655728  0.73118114     0.17580
N2460       N  0.03163133  0.68548899  0.69708988    -0.89130
H2461       H  0.12498482  0.74078929  0.83615680     0.34960
H2462       H  0.16777877  0.72943562  0.80933043     0.40050
H2463       H  0.00811007  0.69740869  0.68632480     0.39670
H2464       H  0.05441398  0.68391484  0.67247663     0.34560
C2465       C  0.58718514  0.92997185  0.78276302    -0.27170
C2466       C  0.59651733  0.90866122  0.76296468    -0.15240
C2467       C  0.57516343  0.88813521  0.77699221     0.35390
C2468       C  0.54386755  0.88951948  0.80970731    -0.26620
C2469       C  0.53251501  0.91105766  0.82793971    -0.15850
C2470       C  0.55496596  0.93135550  0.81471925     0.36470
N2471       N  0.54445081  0.95350242  0.83307900    -0.90110
H2472       H  0.60439505  0.94565257  0.77292601     0.17590
H2473       H  0.52721668  0.87380903  0.82008266     0.17580
N2474       N  0.58564543  0.86593722  0.75815815    -0.89130
H2475       H  0.53391589  0.96465043  0.80920918     0.34960
H2476       H  0.57373166  0.96041795  0.84582120     0.40050
H2477       H  0.57458875  0.86634295  0.72715129     0.39670
H2478       H  0.56798940  0.85250112  0.77277107     0.34560
C2479       C  0.55843126  0.93158612  0.93198329    -0.27170
C2480       C  0.53543624  0.91113870  0.92067884    -0.15240
C2481       C  0.54835955  0.88976440  0.93854897     0.35390
C2482       C  0.58254683  0.88926444  0.46845524    -0.26620
C2483       C  0.60427365  0.90981005  0.48116146    -0.15850
C2484       C  0.59302388  0.93117671  0.96174045     0.36470
N2485       N  0.61455878  0.95280910  0.97243020    -0.90110
H2486       H  0.54804660  0.94817722  0.91908970     0.17590
H2487       H  0.59157447  0.87272245  0.48254913     0.17580
N2488       N  0.52599164  0.86858984  0.92715329    -0.89130
H2489       H  0.63070285  0.95884032  0.94557312     0.34960
H2490       H  0.63909546  0.95043879  0.49519220     0.40050
H2491       H  0.51243747  0.86131940  0.95428267     0.39670
H2492       H  0.54973825  0.85692724  0.91537336     0.34560
C2493       C  0.88703589  0.94602821  0.48450676    -0.27170
C2494       C  0.87733378  0.94285143  0.52709191    -0.15240
C2495       C  0.90125535  0.95612819  0.55697975     0.35390
C2496       C  0.93916148  0.96861625  0.54476004    -0.26620
C2497       C  0.95090745  0.97078573  0.50263829    -0.15850
C2498       C  0.92264362  0.96056009  0.47180839     0.36470
N2499       N  0.92875635  0.96447684  0.92782292    -0.90110
H2500       H  0.86790428  0.93667367  0.46109024     0.17590
H2501       H  0.95983339  0.97680569  0.56844335     0.17580
N2502       N  0.88720454  0.95658614  0.59998162    -0.89130
H2503       H  0.93661704  0.94849090  0.91375644     0.34960
H2504       H  0.95515369  0.97587740  0.92222983     0.40050
H2505       H  0.85499388  0.96355317  0.60076224     0.39670
H2506       H  0.90693070  0.96811807  0.61728335     0.34560
C2507       C  0.91471950  0.94494198  0.70487346    -0.27170
C2508       C  0.88050711  0.93944394  0.73367104    -0.15240
C2509       C  0.88262143  0.95020859  0.77399538     0.35390
C2510       C  0.91910774  0.96512567  0.78375719    -0.26620
C2511       C  0.95358133  0.96928086  0.75468717    -0.15850
C2512       C  0.95071693  0.95903969  0.71496561     0.36470
N2513       N  0.98420221  0.96344757  0.68394508    -0.90110
H2514       H  0.91499417  0.93773342  0.67356608     0.17590
H2515       H  0.92109953  0.97304449  0.81454362     0.17580
N2516       N  0.84989789  0.94634605  0.80601868    -0.89130
H2517       H  0.96931144  0.97149909  0.65824442     0.34960
H2518       H  0.99745242  0.94744527  0.67414596     0.40050
H2519       H  0.82417948  0.93564906  0.79568007     0.39670
H2520       H  0.83533081  0.96247844  0.81305700     0.34560
C2521       C  0.59538418  0.79589213  0.76828685    -0.27170
C2522       C  0.60971786  0.79615693  0.72653018    -0.15240
C2523       C  0.58849884  0.78110864  0.69760417     0.35390
C2524       C  0.55062178  0.76882975  0.70871335    -0.26620
C2525       C  0.53345206  0.77009823  0.74910226    -0.15850
C2526       C  0.55807917  0.78241728  0.78029640     0.36470
N2527       N  0.54763194  0.78109385  0.82401472    -0.90110
H2528       H  0.61215999  0.80669751  0.79130317     0.17590
H2529       H  0.53378792  0.75842497  0.68506448     0.17580
N2530       N  0.60531856  0.77752398  0.65648287    -0.89130
H2531       H  0.53945110  0.79785967  0.83453286     0.34960
H2532       H  0.52031454  0.77027842  0.82923633     0.40050
H2533       H  0.63944165  0.77409906  0.65914173     0.39670
H2534       H  0.60005391  0.79250544  0.63869612     0.34560
C2535       C  0.60391302  0.78954882  0.48015010    -0.27170
C2536       C  0.62717553  0.79094818  0.51832351    -0.15240
C2537       C  0.61511881  0.77527643  0.54992106     0.35390
C2538       C  0.57202398  0.76598298  0.55017079    -0.26620
C2539       C  0.54624427  0.76582309  0.51364991    -0.15850
C2540       C  0.56608653  0.77464729  0.47652442     0.36470
N2541       N  0.54861109  0.76833027  0.93611212    -0.90110
H2542       H  0.61447125  0.80010755  0.95392473     0.17590
H2543       H  0.55917942  0.75849389  0.57869739     0.17580
N2544       N  0.64607065  0.76898615  0.58210794    -0.89130
H2545       H  0.56624485  0.77693815  0.91255931     0.34960
H2546       H  0.51537447  0.77342710  0.93366704     0.40050
H2547       H  0.67728789  0.77649135  0.57663932     0.39670
H2548       H  0.65076859  0.75091590  0.58031644     0.34560
C2549       C  0.88925556  0.78494088  0.49932941    -0.27170
C2550       C  0.89144629  0.79756514  0.53705251    -0.15240
C2551       C  0.92780311  0.79337675  0.56495657     0.35390
C2552       C  0.95862316  0.77622883  0.55546904    -0.26620
C2553       C  0.95780094  0.76446397  0.51752894    -0.15850
C2554       C  0.92314506  0.76886531  0.48876205     0.36470
N2555       N  0.92337831  0.75800789  0.94838753    -0.90110
H2556       H  0.86250517  0.78826347  0.47737322     0.17590
H2557       H  0.98605715  0.77332597  0.57683770     0.17580
N2558       N  0.93553120  0.80734735  0.60188826    -0.89130
H2559       H  0.92418586  0.77116044  0.92580444     0.34960
H2560       H  0.89346460  0.74884453  0.94486216     0.40050
H2561       H  0.94643301  0.82373998  0.59183215     0.39670
H2562       H  0.96158366  0.80072091  0.62005371     0.34560
C2563       C  0.89436212  0.77984745  0.68888625    -0.27170
C2564       C  0.87472738  0.79189679  0.72270640    -0.15240
C2565       C  0.89026320  0.78695051  0.76371724     0.35390
C2566       C  0.92698107  0.77178641  0.76888994    -0.26620
C2567       C  0.94996605  0.76248380  0.73425290    -0.15850
C2568       C  0.93250531  0.76592136  0.69395779     0.36470
N2569       N  0.95572440  0.75705457  0.65786332    -0.90110
H2570       H  0.88233596  0.78312489  0.65747207     0.17590
H2571       H  0.93924207  0.76838265  0.80015082     0.17580
N2572       N  0.87167565  0.79764969  0.80050687    -0.89130
H2573       H  0.93588173  0.75908170  0.63131501     0.34960
H2574       H  0.95990803  0.73910826  0.66094656     0.40050
H2575       H  0.84423042  0.80804304  0.79354863     0.39670
H2576       H  0.89601023  0.80860010  0.81336603     0.34560
loop_ 
_geom_bond_atom_site_label_1 
_geom_bond_atom_site_label_2 
_geom_bond_distance 
_geom_bond_site_symmetry_2 
_ccdc_geom_bond_type 
N1            N2   1.333       .  A
N1            N7   1.311       .  A
N1          Mn30   2.240       .  S
N2            C9   1.367       .  A
N3            N5   1.309       .  A
N3            N4   1.302       .  A
N3          Mn19   2.123       .  S
N4           C10   1.339       .  A
N5            N6   1.339       .  A
N5          Mn30   2.274       .  S
N6           C10   1.374       .  A
N7            N8   1.312       .  A
N7          Mn19   2.165       .  S
N8            C9   1.344       .  A
C9         C1276   1.495       .  S
C10        C1220   1.511       .  S
N11          N17   1.314       .  A
N11          N12   1.334       .  A
N11         Mn41   2.256       .  S
N12          C20   1.367       .  A
N13          N14   1.295       .  A
N13          N15   1.308       .  A
N13         Mn19   2.107       .  S
N14          C21   1.329       .  A
N15          N16   1.335       .  A
N15         Mn41   2.233       .  S
N16          C21   1.370       .  A
N17          N18   1.310       .  A
N17         Mn19   2.160       .  S
N18          C20   1.343       .  A
Mn19        Cl43   2.466       .  S
C20        C1206   1.491       .  S
C21        C1262   1.482       .  S
N22          N23   1.320       .  A
N22          N28   1.326       .  A
N22         Mn30   2.207       .  S
N23          C31   1.346       .  A
N24          N26   1.318       .  A
N24          N25   1.309       .  A
N24         Mn42   2.175       .  S
N25          C32   1.341       .  A
N26          N27   1.332       .  A
N26         Mn30   2.243       .  S
N27          C32   1.364       .  A
N28          N29   1.325       .  A
N28         Mn42   2.238       .  S
N29          C31   1.355       .  A
Mn30        Cl43   2.612       .  S
C31        C1178   1.479       .  S
C32        C1234   1.484       .  S
N33          N34   1.333       .  A
N33          N39   1.319       .  A
N33         Mn41   2.239       .  S
N34          C44   1.362       .  A
N35          N36   1.323       .  A
N35          N37   1.323       .  A
N35         Mn42   2.223       .  S
N36          C45   1.353       .  A
N37          N38   1.322       .  A
N37         Mn41   2.212       .  S
N38          C45   1.349       .  A
N39          N40   1.314       .  A
N39         Mn42   2.209       .  S
N40          C44   1.348       .  A
Mn41        Cl43   2.617       .  S
Mn42        Cl43   2.479       .  S
C44        C1248   1.488       .  S
C45        C1195   1.478   1_554  S
C46          C47   1.367       .  D
C46        C1150   1.486       .  S
C46        C1164   1.505   1_655  S
C47        C1136   1.491   1_655  S
C47        C1279   1.498       .  S
N48          N49   1.327       .  A
N48          N54   1.314       .  A
N48         Mn77   2.219       .  S
N49          C56   1.359       .  A
N50          N52   1.316       .  A
N50          N51   1.312       .  A
N50         Mn66   2.159       .  S
N51          C57   1.342       .  A
N52          N53   1.330       .  A
N52         Mn77   2.256       .  S
N53          C57   1.363       .  A
N54          N55   1.313       .  A
N54         Mn66   2.167       .  S
N55          C56   1.343       .  A
C56        C1125   1.468       .  S
C57        C1080   1.476       .  S
N58          N64   1.316       .  A
N58          N59   1.327       .  A
N58         Mn88   2.231       .  S
N59          C67   1.358       .  A
N60          N61   1.311       .  A
N60          N62   1.313       .  A
N60         Mn66   2.153       .  S
N61          C68   1.341       .  A
N62          N63   1.329       .  A
N62         Mn88   2.232       .  S
N63          C68   1.361       .  A
N64          N65   1.317       .  A
N64         Mn66   2.186       .  S
N65          C67   1.348       .  A
Mn66        Cl90   2.500       .  S
C67        C1066   1.476       .  S
C68        C1139   1.469       .  S
N69          N70   1.318       .  A
N69          N75   1.322       .  A
N69         Mn77   2.201       .  S
N70          C78   1.347       .  A
N71          N73   1.316       .  A
N71          N72   1.311       .  A
N71         Mn89   2.159       .  S
N72          C79   1.338       .  A
N73          N74   1.333       .  A
N73         Mn77   2.261       .  S
N74          C79   1.367       .  A
N75          N76   1.326       .  A
N75         Mn89   2.228       .  S
N76          C78   1.356       .  A
Mn77        Cl90   2.582       .  S
C78        C1041   1.483   1_554  S
C79        C1097   1.479       .  S
N80          N81   1.328       .  A
N80          N86   1.315       .  A
N80         Mn88   2.228       .  S
N81          C91   1.361       .  A
N82          N83   1.323       .  A
N82          N84   1.322       .  A
N82         Mn89   2.218       .  S
N83          C92   1.354       .  A
N84          N85   1.321       .  A
N84         Mn88   2.212       .  S
N85          C92   1.349       .  A
N86          N87   1.312       .  A
N86         Mn89   2.171       .  S
N87          C91   1.341       .  A
Mn88        Cl90   2.585       .  S
Mn89        Cl90   2.505       .  S
C91        C1108   1.470       .  S
C92        C1055   1.478       .  S
C93        C1382   1.361       .  D
C93        C1010   1.484       .  S
C93        C1024   1.477   1_655  S
C94        C1381   1.361       .  D
C94        C1122   1.501   1_655  S
C94        C1265   1.477       .  S
N95          N96   1.324       .  A
N95         N101   1.311       .  A
N95        Mn124   2.205       .  S
N96         C103   1.356       .  A
N97          N99   1.312       .  A
N97          N98   1.310       .  A
N97        Mn113   2.161       .  S
N98         C104   1.343       .  A
N99         N100   1.326       .  A
N99        Mn124   2.203       .  S
N100        C104   1.358       .  A
N101        N102   1.312       .  A
N101       Mn113   2.157       .  S
N102        C103   1.348       .  A
C103       C1013   1.465       .  S
C104        C996   1.461       .  S
N105        N111   1.311       .  A
N105        N106   1.334       .  A
N105       Mn135   2.234       .  S
N106        C114   1.367       .  A
N107        N108   1.315       .  A
N107        N109   1.315       .  A
N107       Mn113   2.173       .  S
N108        C115   1.349       .  A
N109        N110   1.322       .  A
N109       Mn135   2.214       .  S
N110        C115   1.356       .  A
N111        N112   1.301       .  A
N111       Mn113   2.124       .  S
N112        C114   1.335       .  A
Mn113      Cl137   2.515       .  S
C114        C982   1.479       .  S
C115       C1153   1.473       .  S
N116        N117   1.324       .  A
N116        N122   1.317       .  A
N116       Mn124   2.210       .  S
N117        C125   1.358       .  A
N118        N120   1.317       .  A
N118        N119   1.333       .  A
N118       Mn136   2.249       .  S
N119        C126   1.368       .  A
N120        N121   1.306       .  A
N120       Mn124   2.163       .  S
N121        C126   1.341       .  A
N122        N123   1.315       .  A
N122       Mn136   2.199       .  S
N123        C125   1.350       .  A
Mn124      Cl137   2.555       .  S
C125        C943   1.487       .  S
C126        C954   1.502       .  S
N127        N128   1.313       .  A
N127        N133   1.320       .  A
N127       Mn135   2.192       .  S
N128        C138   1.343       .  A
N129        N130   1.312       .  A
N129        N131   1.319       .  A
N129       Mn136   2.204       .  S
N130        C139   1.346       .  A
N131        N132   1.329       .  A
N131       Mn135   2.229       .  S
N132        C139   1.363       .  A
N133        N134   1.330       .  A
N133       Mn136   2.239       .  S
N134        C138   1.362       .  A
Mn135      Cl137   2.563       .  S
Mn136      Cl137   2.540       .  S
C138        C968   1.479       .  S
C139        C929   1.497       .  S
N140        N141   1.324       .  A
N140        N146   1.310       .  A
N140       Mn169   2.205       .  S
N141        C148   1.359       .  A
N142        N144   1.307       .  A
N142        N143   1.302       .  A
N142       Mn158   2.131       .  S
N143        C149   1.340       .  A
N144        N145   1.328       .  A
N144       Mn169   2.196       .  S
N145        C149   1.361       .  A
N146        N147   1.318       .  A
N146       Mn158   2.191       .  S
N147        C148   1.353       .  A
C148       C1167   1.492       .  S
C149        C912   1.476       .  S
N150        N156   1.310       .  A
N150        N151   1.331       .  A
N150       Mn180   2.227       .  S
N151        C159   1.365       .  A
N152        N153   1.305       .  A
N152        N154   1.309       .  A
N152       Mn158   2.145       .  S
N153        C160   1.342       .  A
N154        N155   1.321       .  A
N154       Mn180   2.179       .  S
N155        C160   1.356       .  A
N156        N157   1.305       .  A
N156       Mn158   2.135       .  S
N157        C159   1.339       .  A
Mn158      Cl182   2.487       .  S
C159        C898   1.488       .  S
C160       C1027   1.465       .  S
N161        N162   1.321       .  A
N161        N167   1.319       .  A
N161       Mn169   2.204       .  S
N162        C170   1.355       .  A
N163        N165   1.317       .  A
N163        N164   1.335       .  A
N163       Mn181   2.264       .  S
N164        C171   1.371       .  A
N165        N166   1.304       .  A
N165       Mn169   2.147       .  S
N166        C171   1.337       .  A
N167        N168   1.318       .  A
N167       Mn181   2.207       .  S
N168        C170   1.350       .  A
Mn169      Cl182   2.562       .  S
C170        C856   1.478       .  S
C171        C870   1.502       .  S
N172        N173   1.314       .  A
N172        N178   1.321       .  A
N172       Mn180   2.185       .  S
N173        C183   1.342       .  A
N174        N175   1.319       .  A
N174        N176   1.320       .  A
N174       Mn181   2.221       .  S
N175        C184   1.350       .  A
N176        N177   1.321       .  A
N176       Mn180   2.196       .  S
N177        C184   1.352       .  A
N178        N179   1.331       .  A
N178       Mn181   2.253       .  S
N179        C183   1.364       .  A
Mn180      Cl182   2.568       .  S
Mn181      Cl182   2.531       .  S
C183        C884   1.480       .  S
C184        C845   1.466       .  S
C185        C186   1.371       .  D
C185       C1111   1.503       .  S
C185       C1237   1.492       .  S
C186        C915   1.492       .  S
C186        C985   1.484       .  S
C187       C1476   1.384       .  D
C187        C901   1.499       .  S
C187        C999   1.493       .  S
C188       C1475   1.384       .  D
C188       C1094   1.537       .  S
C188       C1251   1.509       .  S
C189        C190   1.369       .  D
C189       C1038   1.498       .  S
C189       C1192   1.492       .  S
C190       C1052   1.493       .  S
C190       C1181   1.494       .  S
C191        C192   1.386       .  D
C191        C873   1.500   1_655  S
C191        C971   1.501       .  S
C192        C887   1.508   1_655  S
C192        C957   1.510       .  S
C193        C194   1.377       .  D
C193       C2130   1.509       .  S
C193       C2228   1.495       .  S
C194        C817   1.494   1_556  S
C194        C828   1.507   1_556  S
C195        C196   1.369       .  D
C195        C859   1.488       .  S
C195        C926   1.501       .  S
C196        C786   1.505       .  S
C196        C803   1.494       .  S
N197        N198   1.335       .  A
N197        N203   1.311       .  A
N197       Mn226   2.261       .  S
N198        C205   1.370       .  A
N199        N201   1.311       .  A
N199        N200   1.312       .  A
N199       Mn215   2.159       .  S
N200        C206   1.343       .  A
N201        N202   1.333       .  A
N201       Mn226   2.243       .  S
N202        C206   1.366       .  A
N203        N204   1.305       .  A
N203       Mn215   2.134       .  S
N204        C205   1.341       .  A
C205        C814   1.500       .  S
C206        C758   1.488       .  S
N207        N213   1.309       .  A
N207        N208   1.335       .  A
N207       Mn237   2.242       .  S
N208        C216   1.370       .  A
N209        N210   1.312       .  A
N209        N211   1.315       .  A
N209       Mn215   2.160       .  S
N210        C217   1.343       .  A
N211        N212   1.330       .  A
N211       Mn237   2.250       .  S
N212        C217   1.365       .  A
N213        N214   1.299       .  A
N213       Mn215   2.121       .  S
N214        C216   1.331       .  A
Mn215      Cl239   2.479       .  S
C216        C772   1.489       .  S
C217        C789   1.485       .  S
N218        N219   1.330       .  A
N218        N224   1.317       .  A
N218       Mn226   2.236       .  S
N219        C227   1.362       .  A
N220        N222   1.324       .  A
N220        N221   1.325       .  A
N220       Mn238   2.226       .  S
N221        C228   1.354       .  A
N222        N223   1.321       .  A
N222       Mn226   2.216       .  S
N223        C228   1.348       .  A
N224        N225   1.313       .  A
N224       Mn238   2.183       .  S
N225        C227   1.343       .  A
Mn226      Cl239   2.601       .  S
C227        C747   1.478       .  S
C228        C716   1.481   1_554  S
N229        N230   1.321       .  A
N229        N235   1.325       .  A
N229       Mn237   2.219       .  S
N230        C240   1.349       .  A
N231        N232   1.305       .  A
N231        N233   1.316       .  A
N231       Mn238   2.167       .  S
N232        C241   1.342       .  A
N233        N234   1.335       .  A
N233       Mn237   2.244       .  S
N234        C241   1.368       .  A
N235        N236   1.326       .  A
N235       Mn238   2.228       .  S
N236        C240   1.355       .  A
Mn237      Cl239   2.605       .  S
Mn238      Cl239   2.488       .  S
C240        C702   1.485       .  S
C241        C730   1.497       .  S
N242        N243   1.328       .  A
N242        N248   1.315       .  A
N242       Mn271   2.235       .  S
N243        C250   1.361       .  A
N244        N246   1.313       .  A
N244        N245   1.313       .  A
N244       Mn260   2.162       .  S
N245        C251   1.343       .  A
N246        N247   1.329       .  A
N246       Mn271   2.235       .  S
N247        C251   1.362       .  A
N248        N249   1.312       .  A
N248       Mn260   2.165       .  S
N249        C250   1.344       .  A
C250        C800   1.473       .  S
C251        C674   1.476       .  S
N252        N258   1.314       .  A
N252        N253   1.328       .  A
N252       Mn282   2.229       .  S
N253        C261   1.361       .  A
N254        N255   1.315       .  A
N254        N256   1.316       .  A
N254       Mn260   2.170       .  S
N255        C262   1.344       .  A
N256        N257   1.330       .  A
N256       Mn282   2.255       .  S
N257        C262   1.364       .  A
N258        N259   1.311       .  A
N258       Mn260   2.155       .  S
N259        C261   1.341       .  A
Mn260      Cl284   2.502       .  S
C261        C691   1.469       .  S
C262        C831   1.483       .  S
N263        N264   1.329       .  A
N263        N269   1.317       .  A
N263       Mn271   2.230       .  S
N264        C272   1.360       .  A
N265        N267   1.323       .  A
N265        N266   1.324       .  A
N265       Mn283   2.221       .  S
N266        C273   1.354       .  A
N267        N268   1.321       .  A
N267       Mn271   2.214       .  S
N268        C273   1.348       .  A
N269        N270   1.313       .  A
N269       Mn283   2.181       .  S
N270        C272   1.343       .  A
Mn271      Cl284   2.585       .  S
C272        C660   1.471       .  S
C273        C632   1.481       .  S
N274        N275   1.319       .  A
N274        N280   1.322       .  A
N274       Mn282   2.205       .  S
N275        C285   1.348       .  A
N276        N277   1.312       .  A
N276        N278   1.317       .  A
N276       Mn283   2.170       .  S
N277        C286   1.341       .  A
N278        N279   1.333       .  A
N278       Mn282   2.260       .  S
N279        C286   1.367       .  A
N280        N281   1.326       .  A
N280       Mn283   2.233       .  S
N281        C285   1.357       .  A
Mn282      Cl284   2.584       .  S
Mn283      Cl284   2.513       .  S
C285        C618   1.484   1_554  S
C286        C646   1.484       .  S
C287        C288   1.363       .  D
C287        C677   1.506       .  S
C287        C775   1.483       .  S
C288        C590   1.477       .  S
C288        C607   1.486       .  S
C289       C1578   1.373       .  D
C289        C688   1.502       .  S
C289        C761   1.514       .  S
C290       C1577   1.373       .  D
C290        C562   1.500       .  S
C290        C576   1.485       .  S
N291        N292   1.322       .  A
N291        N297   1.309       .  A
N291       Mn320   2.192       .  S
N292        C299   1.359       .  A
N293        N295   1.309       .  A
N293        N294   1.302       .  A
N293       Mn309   2.128       .  S
N294        C300   1.335       .  A
N295        N296   1.330       .  A
N295       Mn320   2.206       .  S
N296        C300   1.361       .  A
N297        N298   1.307       .  A
N297       Mn309   2.140       .  S
N298        C299   1.342       .  A
C299        C593   1.468       .  S
C300        C548   1.468       .  S
N301        N307   1.307       .  A
N301        N302   1.334       .  A
N301       Mn331   2.230       .  S
N302        C310   1.369       .  A
N303        N304   1.317       .  A
N303        N305   1.311       .  A
N303       Mn309   2.171       .  S
N304        C311   1.349       .  A
N305        N306   1.324       .  A
N305       Mn331   2.217       .  S
N306        C311   1.360       .  A
N307        N308   1.299       .  A
N307       Mn309   2.111       .  S
N308        C310   1.329       .  A
Mn309      Cl333   2.468       .  S
C310        C534   1.483       .  S
C311        C565   1.486       .  S
N312        N313   1.322       .  A
N312        N318   1.320       .  A
N312       Mn320   2.195       .  S
N313        C321   1.351       .  A
N314        N316   1.318       .  A
N314        N315   1.336       .  A
N314       Mn332   2.265       .  S
N315        C322   1.369       .  A
N316        N317   1.307       .  A
N316       Mn320   2.156       .  S
N317        C322   1.338       .  A
N318        N319   1.321       .  A
N318       Mn332   2.235       .  S
N319        C321   1.353       .  A
Mn320      Cl333   2.567       .  S
C321        C492   1.472       .  S
C322        C506   1.490       .  S
N323        N324   1.305       .  A
N323        N329   1.319       .  A
N323       Mn331   2.161       .  S
N324        C334   1.337       .  A
N325        N326   1.315       .  A
N325        N327   1.320       .  A
N325       Mn332   2.213       .  S
N326        C335   1.349       .  A
N327        N328   1.325       .  A
N327       Mn331   2.217       .  S
N328        C335   1.357       .  A
N329        N330   1.336       .  A
N329       Mn332   2.264       .  S
N330        C334   1.369       .  A
Mn331      Cl333   2.568       .  S
Mn332      Cl333   2.543       .  S
C334        C520   1.489       .  S
C335        C478   1.481       .  S
N336        N337   1.324       .  A
N336        N342   1.312       .  A
N336       Mn365   2.218       .  S
N337        C344   1.360       .  A
N338        N340   1.310       .  A
N338        N339   1.305       .  A
N338       Mn354   2.137       .  S
N339        C345   1.340       .  A
N340        N341   1.328       .  A
N340       Mn365   2.210       .  S
N341        C345   1.362       .  A
N342        N343   1.311       .  A
N342       Mn354   2.155       .  S
N343        C344   1.345       .  A
C344        C579   1.481       .  S
C345        C467   1.475       .  S
N346        N352   1.311       .  A
N346        N347   1.329       .  A
N346       Mn376   2.222       .  S
N347        C355   1.362       .  A
N348        N349   1.313       .  A
N348        N350   1.312       .  A
N348       Mn354   2.165       .  S
N349        C356   1.347       .  A
N350        N351   1.324       .  A
N350       Mn376   2.212       .  S
N351        C356   1.356       .  A
N352        N353   1.307       .  A
N352       Mn354   2.135       .  S
N353        C355   1.338       .  A
Mn354      Cl378   2.514       .  S
C355        C453   1.464       .  S
C356        C604   1.467       .  S
N357        N358   1.327       .  A
N357        N363   1.317       .  A
N357       Mn365   2.225       .  S
N358        C366   1.362       .  A
N359        N361   1.319       .  A
N359        N360   1.333       .  A
N359       Mn377   2.257       .  S
N360        C367   1.367       .  A
N361        N362   1.311       .  A
N361       Mn365   2.174       .  S
N362        C367   1.341       .  A
N363        N364   1.315       .  A
N363       Mn377   2.201       .  S
N364        C366   1.347       .  A
Mn365      Cl378   2.558       .  S
C366        C408   1.493       .  S
C367        C425   1.490       .  S
N368        N369   1.310       .  A
N368        N374   1.320       .  A
N368       Mn376   2.175       .  S
N369        C379   1.340       .  A
N370        N371   1.316       .  A
N370        N372   1.319       .  A
N370       Mn377   2.209       .  S
N371        C380   1.350       .  A
N372        N373   1.324       .  A
N372       Mn376   2.210       .  S
N373        C380   1.357       .  A
N374        N375   1.330       .  A
N374       Mn377   2.242       .  S
N375        C379   1.362       .  A
Mn376      Cl378   2.560       .  S
Mn377      Cl378   2.539       .  S
C379        C436   1.473       .  S
C380        C394   1.487       .  S
C381        C382   1.372       .  D
C381        C663   1.507       .  S
C381        C733   1.490   1_655  S
C382        C450   1.490   1_655  S
C382        C551   1.492       .  S
C383       C1672   1.371       .  D
C383        C649   1.511       .  S
C383        C744   1.514   1_655  S
C384       C1671   1.371       .  D
C384        C464   1.482   1_655  S
C384        C537   1.486       .  S
C385        C386   1.370       .  D
C385        C635   1.497       .  S
C385        C705   1.497   1_655  S
C386        C621   1.498       .  S
C386        C719   1.495   1_655  S
C387        C388   1.379       .  D
C387        C422   1.502       .  S
C387        C523   1.499       .  S
C388        C439   1.500       .  S
C388        C509   1.505       .  S
C389       C1678   1.377   1_545  D
C389        C411   1.518   1_655  S
C389        C481   1.489       .  S
C390       C1677   1.377   1_565  D
C390       C1083   1.500   1_656  S
C390       C1209   1.502   1_556  S
C391        C392   1.376   1_545  D
C391        C397   1.496   1_655  S
C391        C495   1.508       .  S
C392       C1069   1.511   1_655  S
C392       C1223   1.497       .  S
C393        C394   1.406       .  A
C393        C398   1.396       .  A
C393        H400   1.077       .  S
C394        C395   1.414       .  A
C395        C396   1.410       .  A
C395        N402   1.437       .  S
C396        C397   1.406       .  A
C396        H401   1.084       .  S
C397        C398   1.404       .  A
C398        N399   1.432   1_545  S
N399        H403   1.044   1_565  S
N399        H404   1.046       .  S
N402        H405   1.045       .  S
N402        H406   1.046       .  S
C407        C408   1.402       .  A
C407        C412   1.408       .  A
C407        H414   1.084       .  S
C408        C409   1.420       .  A
C409        C410   1.397       .  A
C409        N416   1.433       .  S
C410        C411   1.406       .  A
C410        H415   1.079   1_545  S
C411        C412   1.419       .  A
C412       N1701   1.429       .  S
N413       C1700   1.429   1_554  S
N413        H417   1.045       .  S
N413        H418   1.046       .  S
N416        H419   1.045       .  S
N416        H420   1.040       .  S
C421        C422   1.409       .  A
C421        C426   1.414       .  A
C421        H428   1.082       .  S
C422        C423   1.419       .  A
C423       C1712   1.396       .  A
C423        N430   1.436       .  S
C424        C425   1.404       .  A
C424       C1711   1.396       .  A
C424        H429   1.085       .  S
C425       C1714   1.420       .  A
C426       C1713   1.420       .  A
C426        N427   1.437       .  S
N427        H431   1.046   1_554  S
N427       H1720   1.041   1_554  S
N430        H433   1.037       .  S
N430       H1722   1.046       .  S
H432       N1715   1.041       .  S
H434       N1718   1.046       .  S
C435        C436   1.407       .  A
C435        C440   1.417       .  A
C435        H442   1.083       .  S
C436        C437   1.413       .  A
C437        C438   1.390       .  A
C437        N444   1.440       .  S
C438        C439   1.406       .  A
C438        H443   1.077       .  S
C439        C440   1.413       .  A
C440        N441   1.437       .  S
N441        H445   1.045       .  S
N441        H446   1.042       .  S
N444        H447   1.043       .  S
N444        H448   1.046       .  S
C449        C450   1.404       .  A
C449        C454   1.395       .  A
C449        H456   1.084   1_455  S
C450        C451   1.411       .  A
C451        C452   1.408       .  A
C451        N458   1.430       .  S
C452        C453   1.403       .  A
C452        H457   1.084       .  S
C453        C454   1.410       .  A
C454        N455   1.441       .  S
N455        H459   1.046       .  S
N455        H460   1.043       .  S
N458        H461   1.046       .  S
N458        H462   1.046       .  S
C463        C464   1.408       .  A
C463        C468   1.401       .  A
C463        H470   1.079       .  S
C464        C465   1.402       .  A
C465        C466   1.387       .  A
C465        N472   1.434       .  S
C466        C467   1.407       .  A
C466        H471   1.083       .  S
C467        C468   1.411       .  A
C468        N469   1.431       .  S
N469        H473   1.045       .  S
N469        H474   1.045       .  S
N472        H475   1.046       .  S
N472        H476   1.046       .  S
C477        C478   1.403       .  A
C477        C482   1.412       .  A
C477       H1772   1.083       .  S
C478        C479   1.415       .  A
C479        C480   1.391       .  A
C479        N486   1.427       .  S
C480        C481   1.395       .  A
C480        H485   1.085       .  S
C481        C482   1.418       .  A
C482       N1771   1.438       .  S
N483       C1770   1.438       .  S
N483        H487   1.046       .  S
N483        H488   1.042       .  S
H484       C1765   1.083       .  S
N486        H489   1.042       .  S
N486        H490   1.045       .  S
C491        C492   1.399       .  A
C491        C496   1.407       .  A
C491        H498   1.084       .  S
C492        C493   1.411       .  A
C493        C494   1.398       .  A
C493        N500   1.439       .  S
C494        C495   1.410       .  A
C494        H499   1.084       .  S
C495        C496   1.417       .  A
C496        N497   1.429       .  S
N497        H501   1.045       .  S
N497        H502   1.046   1_545  S
N500        H503   1.044       .  S
N500        H504   1.046       .  S
C505        C506   1.404       .  A
C505        C510   1.419       .  A
C505        H512   1.083       .  S
C506        C507   1.417       .  A
C507        C508   1.398       .  A
C507        N514   1.440       .  S
C508        C509   1.400       .  A
C508        H513   1.078       .  S
C509        C510   1.417       .  A
C510        N511   1.434       .  S
N511        H515   1.046       .  S
N511        H516   1.046       .  S
N514        H517   1.046       .  S
N514        H518   1.046       .  S
C519        C520   1.404       .  A
C519       C1812   1.415       .  A
C519        H526   1.083       .  S
C520       C1809   1.415       .  A
C521        C522   1.390       .  A
C521       C1808   1.415       .  A
C521        N528   1.434       .  S
C522        C523   1.396       .  A
C522        H527   1.074       .  S
C523        C524   1.423       .  A
C524       C1807   1.415       .  A
C524        N525   1.435       .  S
N525        H530   1.044       .  S
N525       H1817   1.045       .  S
N528        H531   1.046       .  S
N528        H532   1.046       .  S
H529       N1813   1.045       .  S
C533        C534   1.402       .  A
C533        C538   1.407       .  A
C533        H540   1.083       .  S
C534        C535   1.431       .  A
C535        C536   1.379       .  A
C535        N542   1.435       .  S
C536        C537   1.390       .  A
C536        H541   1.083       .  S
C537        C538   1.419       .  A
C538       N1827   1.435       .  S
N539       C1826   1.435       .  S
N539        H543   1.045       .  S
N539        H544   1.044       .  S
N542        H545   1.045       .  S
N542        H546   1.045       .  S
C547        C548   1.396       .  A
C547        C552   1.401       .  A
C547        H554   1.084       .  S
C548        C549   1.417       .  A
C549        C550   1.387       .  A
C549        N556   1.440       .  S
C550        C551   1.396       .  A
C550        H555   1.082       .  S
C551        C552   1.422       .  A
C552        N553   1.434       .  S
N553        H557   1.045       .  S
N553        H558   1.043       .  S
N556        H559   1.046       .  S
N556        H560   1.046       .  S
C561        C562   1.407       .  A
C561        C566   1.406       .  A
C561        H568   1.075       .  S
C562        C563   1.408       .  A
C563        C564   1.402       .  A
C563        N570   1.432       .  S
C564        C565   1.407       .  A
C564        H569   1.083       .  S
C565        C566   1.410       .  A
C566        N567   1.437       .  S
N567        H572   1.046       .  S
N567       H1859   1.046       .  S
N570        H573   1.046       .  S
N570        H574   1.045       .  S
H571       N1855   1.046       .  S
C575        C576   1.397       .  A
C575        C580   1.388       .  A
C575        H582   1.083       .  S
C576        C577   1.418       .  A
C577        C578   1.401       .  A
C577       N1872   1.435       .  S
C578        C579   1.404       .  A
C578       H1871   1.084       .  S
C579        C580   1.421       .  A
C580        N581   1.432       .  S
N581        H585   1.045       .  S
N581        H586   1.042       .  S
H583       C1866   1.084       .  S
N584       C1865   1.435       .  S
N584        H587   1.039       .  S
N584        H588   1.046       .  S
C589        C590   1.396       .  A
C589        C594   1.391       .  A
C589        H596   1.084       .  S
C590        C591   1.408       .  A
C591        C592   1.397       .  A
C591        N598   1.433       .  S
C592        C593   1.401       .  A
C592        H597   1.083       .  S
C593        C594   1.418       .  A
C594        N595   1.439       .  S
N595        H599   1.046       .  S
N595        H600   1.046       .  S
N598        H601   1.046       .  S
N598        H602   1.046       .  S
C603        C604   1.398       .  A
C603        C608   1.394       .  A
C603        H610   1.083       .  S
C604        C605   1.415       .  A
C605        C606   1.406       .  A
C605        N612   1.437       .  S
C606        C607   1.406       .  A
C606        H611   1.084       .  S
C607        C608   1.410       .  A
C608        N609   1.439       .  S
N609        H613   1.046       .  S
N609        H614   1.045       .  S
N612        H615   1.043       .  S
N612        H616   1.046       .  S
C617        C618   1.400       .  A
C617       C1910   1.410       .  A
C617        H624   1.084       .  S
C618       C1907   1.414       .  A
C619        C620   1.407       .  A
C619       C1906   1.414       .  A
C619        N626   1.437       .  S
C620        C621   1.401       .  A
C620        H625   1.080       .  S
C621        C622   1.413       .  A
C622       C1905   1.410       .  A
C622        N623   1.431       .  S
N623        H628   1.046       .  S
N623       H1915   1.045       .  S
N626        H630   1.045       .  S
N626       H1917   1.046       .  S
H627       N1911   1.045       .  S
H629       N1914   1.046       .  S
C631        C632   1.402       .  A
C631        C636   1.404       .  A
C631        H638   1.085       .  S
C632        C633   1.415       .  A
C633        C634   1.410       .  A
C633        N640   1.437       .  S
C634        C635   1.406       .  A
C634        H639   1.084       .  S
C635        C636   1.414       .  A
C636        N637   1.438       .  S
N637        H641   1.046       .  S
N637        H642   1.044       .  S
N640        H643   1.044       .  S
N640        H644   1.046       .  S
C645        C646   1.402       .  A
C645        C650   1.404       .  A
C645        H652   1.081       .  S
C646        C647   1.410   1_554  A
C647        C648   1.407       .  A
C647        N654   1.429       .  S
C648        C649   1.412   1_556  A
C648        H653   1.078       .  S
C649        C650   1.406       .  A
C650        N651   1.428       .  S
N651        H655   1.046       .  S
N651        H656   1.040       .  S
N654        H657   1.043       .  S
N654        H658   1.045       .  S
C659        C660   1.403       .  A
C659        C664   1.408       .  A
C659        H666   1.084       .  S
C660        C661   1.413       .  A
C661        C662   1.398       .  A
C661        N668   1.438       .  S
C662        C663   1.405       .  A
C662        H667   1.081       .  S
C663        C664   1.411       .  A
C664        N665   1.431       .  S
N665        H669   1.046       .  S
N665        H670   1.046       .  S
N668        H671   1.044       .  S
N668        H672   1.046       .  S
C673        C674   1.404       .  A
C673        C678   1.406       .  A
C673        H680   1.084       .  S
C674        C675   1.417       .  A
C675        C676   1.405       .  A
C675        N682   1.438       .  S
C676        C677   1.404       .  A
C676        H681   1.084       .  S
C677        C678   1.414       .  A
C678        N679   1.437       .  S
N679        H683   1.045       .  S
N679        H684   1.044       .  S
N682        H685   1.042       .  S
N682        H686   1.046       .  S
C687        C688   1.407   1_556  A
C687        C692   1.402       .  A
C687       H1982   1.079       .  S
C688        C689   1.415       .  A
C689        C690   1.404       .  A
C689        N696   1.436       .  S
C690        C691   1.401       .  A
C690        H695   1.085       .  S
C691        C692   1.413   1_554  A
C692        N693   1.438       .  S
N693        H698   1.042       .  S
N693       H1985   1.046       .  S
H694       C1975   1.079       .  S
N696        H699   1.041       .  S
N696        H700   1.045       .  S
H697       N1981   1.046       .  S
C701        C702   1.403       .  A
C701        C706   1.412       .  A
C701        H708   1.084       .  S
C702        C703   1.423       .  A
C703        C704   1.405       .  A
C703        N710   1.441       .  S
C704        C705   1.402       .  A
C704        H709   1.082       .  S
C705        C706   1.411       .  A
C706        N707   1.437       .  S
N707        H711   1.045       .  S
N707        H712   1.045       .  S
N710        H713   1.042       .  S
N710        H714   1.046       .  S
C715        C720   1.404       .  A
C715       C2004   1.404       .  A
C715        H722   1.085       .  S
C716        C717   1.416       .  A
C716       C2003   1.404       .  A
C717       C2006   1.409       .  A
C717        N724   1.438       .  S
C718        C719   1.406       .  A
C718       C2005   1.409       .  A
C718        H723   1.082       .  S
C719        C720   1.408       .  A
C720        N721   1.432       .  S
N721        H725   1.046       .  S
N721        H726   1.046       .  S
N724        H727   1.044   1_556  S
N724        H728   1.046   1_556  S
C729        C730   1.409       .  A
C729        C734   1.386       .  A
C729        H736   1.084       .  S
C730        C731   1.427       .  A
C731        C732   1.420       .  A
C731        N738   1.436       .  S
C732        C733   1.409       .  A
C732        H737   1.083       .  S
C733        C734   1.394       .  A
C734        N735   1.429       .  S
N735        H739   1.036       .  S
N735        H740   1.046       .  S
N738        H741   1.039       .  S
N738        H742   1.045       .  S
C743        C744   1.411   1_556  A
C743        C748   1.406       .  A
C743       H2038   1.076       .  S
C744        C745   1.423       .  A
C745        C746   1.402       .  A
C745        N752   1.435       .  S
C746        C747   1.401       .  A
C746        H751   1.085       .  S
C747        C748   1.412   1_554  A
C748       N2037   1.438       .  S
N749       C2036   1.438       .  S
N749        H753   1.046       .  S
N749       H2042   1.043       .  S
H750       C2031   1.076       .  S
N752        H755   1.045       .  S
N752        H756   1.040       .  S
H754       N2037   1.043       .  S
C757        C758   1.403       .  A
C757        C762   1.398       .  A
C757        H764   1.084       .  S
C758        C759   1.417   1_554  A
C759        C760   1.413       .  A
C759        N766   1.437       .  S
C760        C761   1.412   1_556  A
C760       H2053   1.082       .  S
C761        C762   1.413       .  A
C762        N763   1.428       .  S
N763        H767   1.043       .  S
N763        H768   1.039       .  S
H765       C2048   1.082       .  S
N766        H769   1.042       .  S
N766        H770   1.046       .  S
C771        C772   1.407       .  A
C771        C776   1.417       .  A
C771        H778   1.083       .  S
C772        C773   1.431       .  A
C773        C774   1.377       .  A
C773        N780   1.433       .  S
C774        C775   1.387       .  A
C774        H779   1.083       .  S
C775        C776   1.414       .  A
C776        N777   1.436       .  S
N777        H781   1.045       .  S
N777        H782   1.045       .  S
N780        H783   1.045       .  S
N780        H784   1.040       .  S
C785        C786   1.408       .  A
C785        C790   1.407       .  A
C785        H792   1.077       .  S
C786        C787   1.417       .  A
C787        C788   1.400       .  A
C787        N794   1.437       .  S
C788        C789   1.406       .  A
C788        H793   1.085       .  S
C789        C790   1.417       .  A
C790        N791   1.438       .  S
N791        H795   1.046       .  S
N791        H796   1.040       .  S
N794        H797   1.040       .  S
N794        H798   1.045       .  S
C799        C800   1.399       .  A
C799        C804   1.407       .  A
C799        H806   1.084       .  S
C800        C801   1.410       .  A
C801        C802   1.404       .  A
C801        N808   1.437       .  S
C802        C803   1.401       .  A
C802        H807   1.083       .  S
C803        C804   1.414       .  A
C804        N805   1.431       .  S
N805        H809   1.046       .  S
N805        H810   1.046       .  S
N808        H811   1.045       .  S
N808        H812   1.043       .  S
C813        C814   1.411       .  A
C813        C818   1.393       .  A
C813        H820   1.084       .  S
C814        C815   1.424   1_554  A
C815        C816   1.416       .  A
C815        N822   1.436       .  S
C816        C817   1.408   1_556  A
C816        H821   1.084       .  S
C817        C818   1.402       .  A
C818        N819   1.438       .  S
N819        H823   1.044       .  S
N819        H824   1.045       .  S
N822        H825   1.039       .  S
N822        H826   1.045       .  S
C827        C828   1.407   1_556  A
C827        C832   1.407       .  A
C827        H834   1.084       .  S
C828        C829   1.411       .  A
C829        C830   1.407       .  A
C829        N836   1.432       .  S
C830        C831   1.405       .  A
C830        H835   1.084       .  S
C831        C832   1.417   1_554  A
C832        N833   1.438       .  S
N833        H837   1.046       .  S
N833        H838   1.043       .  S
N836        H839   1.046       .  S
N836        H840   1.043       .  S
C841        C842   1.409       .  A
C841        C846   1.402       .  A
C841       H2136   1.077       .  S
C842       C1481   1.509       .  S
C842        C843   1.417       .  A
C843        C844   1.400       .  A
C843        N850   1.432       .  S
C844        C845   1.397       .  A
C844        H849   1.085       .  S
C845        C846   1.411       .  A
C846        N847   1.438       .  S
N847        H852   1.043       .  S
N847       H2139   1.046       .  S
H848       C2129   1.077       .  S
N850        H853   1.045       .  S
N850        H854   1.041       .  S
H851       N2135   1.046       .  S
C855        C856   1.406       .  A
C855        C860   1.396       .  A
C855        H862   1.084       .  S
C856        C857   1.418       .  A
C857        C858   1.401       .  A
C857        N864   1.440       .  S
C858        C859   1.402       .  A
C858        H863   1.079       .  S
C859        C860   1.410       .  A
C860        N861   1.432       .  S
N861        H865   1.043       .  S
N861        H866   1.040       .  S
N864        H867   1.041       .  S
N864        H868   1.046       .  S
C869        C870   1.415       .  A
C869        C874   1.394       .  A
C869        H876   1.083       .  S
C870        C871   1.419       .  A
C871        C872   1.410       .  A
C871        N878   1.438       .  S
C872        C873   1.414       .  A
C872        H877   1.084       .  S
C873        C874   1.414       .  A
C874        N875   1.439       .  S
N875        H879   1.046       .  S
N875        H880   1.034       .  S
N878        H881   1.038       .  S
N878        H882   1.046       .  S
C883        C884   1.397       .  A
C883       C2176   1.396       .  A
C883        H890   1.085       .  S
C884       C2173   1.420       .  A
C885        C886   1.414       .  A
C885       C2172   1.420       .  A
C885        N892   1.437       .  S
C886        C887   1.406       .  A
C886        H891   1.083       .  S
C887        C888   1.426       .  A
C888       C2171   1.396       .  A
C888        N889   1.438   1_455  S
N889        H893   1.046       .  S
N889        H894   1.040       .  S
N892        H896   1.046       .  S
N892       H2183   1.043       .  S
H895       N2180   1.043       .  S
C897        C898   1.414       .  A
C897        C902   1.395       .  A
C897        H904   1.083       .  S
C898        C899   1.415       .  A
C899        C900   1.404       .  A
C899       N2194   1.437       .  S
C900        C901   1.412       .  A
C900       H2193   1.081       .  S
C901        C902   1.407       .  A
C902        N903   1.440       .  S
N903        H907   1.045       .  S
N903        H908   1.045       .  S
H905       C2188   1.081       .  S
N906       C2187   1.437       .  S
N906        H909   1.038       .  S
N906        H910   1.046       .  S
C911        C912   1.408       .  A
C911        C916   1.385       .  A
C911        H918   1.084       .  S
C912        C913   1.412       .  A
C913        C914   1.404       .  A
C913        N920   1.437       .  S
C914        C915   1.413       .  A
C914        H919   1.081       .  S
C915        C916   1.405       .  A
C916        N917   1.432       .  S
N917        H921   1.046       .  S
N917        H922   1.046       .  S
N920        H923   1.040       .  S
N920        H924   1.046       .  S
C925        C926   1.395       .  A
C925        C930   1.392       .  A
C925        H932   1.081       .  S
C926        C927   1.416       .  A
C927        C928   1.414       .  A
C927        N934   1.434       .  S
C928        C929   1.405       .  A
C928        H933   1.083       .  S
C929        C930   1.423       .  A
C930        N931   1.428       .  S
N931        H935   1.042       .  S
N931        H936   1.045       .  S
N934        H937   1.045       .  S
N934        H938   1.045       .  S
C939        C940   1.407       .  A
C939        C944   1.409       .  A
C939       H2234   1.084       .  S
C940       C1481   1.495       .  S
C940        C941   1.406       .  A
C941        C942   1.396       .  A
C941        N948   1.432       .  S
C942        C943   1.406       .  A
C942        H947   1.081       .  S
C943        C944   1.414       .  A
C944       N2233   1.437       .  S
N945       C2232   1.437       .  S
N945        H949   1.046       .  S
N945       H2238   1.045       .  S
H946       C2227   1.084       .  S
N948        H951   1.046       .  S
N948        H952   1.044       .  S
H950       N2233   1.045       .  S
C953        C958   1.394       .  A
C953       C2242   1.413       .  A
C953        H960   1.083       .  S
C954        C955   1.420       .  A
C954       C2241   1.413       .  A
C955       C2244   1.410       .  A
C955        N962   1.437       .  S
C956        C957   1.416       .  A
C956       C2243   1.410       .  A
C956        H961   1.084       .  S
C957        C958   1.408       .  A
C958        N959   1.429       .  S
N959        H963   1.046       .  S
N959        H964   1.046       .  S
N962        H965   1.037       .  S
N962        H966   1.046       .  S
C967        C968   1.397       .  A
C967        C972   1.398       .  A
C967        H974   1.085       .  S
C968        C969   1.420       .  A
C969        C970   1.414       .  A
C969        N976   1.437       .  S
C970        C971   1.406       .  A
C970        H975   1.083       .  S
C971        C972   1.418       .  A
C972        N973   1.437       .  S
N973        H977   1.046       .  S
N973        H978   1.044       .  S
N976        H979   1.043       .  S
N976        H980   1.046       .  S
C981        C982   1.406       .  A
C981        C986   1.387       .  A
C981        H988   1.079       .  S
C982        C983   1.410       .  A
C983        C984   1.408       .  A
C983        N990   1.431       .  S
C984        C985   1.412       .  A
C984        H989   1.083       .  S
C985        C986   1.400       .  A
C986        N987   1.438       .  S
N987        H991   1.045       .  S
N987        H992   1.044       .  S
N990        H993   1.045       .  S
N990        H994   1.045       .  S
C995        C996   1.400       .  A
C995       C1000   1.409       .  A
C995       H1002   1.084       .  S
C996        C997   1.407       .  A
C997        C998   1.390       .  A
C997       N1004   1.438       .  S
C998        C999   1.405       .  A
C998       H1003   1.083       .  S
C999       C1000   1.418       .  A
C1000      N2289   1.435       .  S
N1001      C2288   1.435       .  S
N1001      H1005   1.046       .  S
N1001      H1006   1.044       .  S
N1004      H1007   1.044       .  S
N1004      H1008   1.040       .  S
C1009      C1010   1.405       .  A
C1009      C1014   1.408       .  A
C1009      H2304   1.084       .  S
C1010      C1011   1.409       .  A
C1011      C1012   1.383       .  A
C1011      N1018   1.427       .  S
C1012      C1013   1.396       .  A
C1012      H1017   1.085       .  S
C1013      C1014   1.417       .  A
C1014      N2303   1.437       .  S
N1015      C2302   1.437       .  S
N1015      H1019   1.046       .  S
N1015      H1020   1.043       .  S
H1016      C2297   1.084       .  S
N1018      H1021   1.045       .  S
N1018      H1022   1.043   1_655  S
C1023      C1024   1.397       .  A
C1023      C1028   1.376       .  A
C1023      H1030   1.083       .  S
C1024      C1025   1.409       .  A
C1025      C1026   1.402       .  A
C1025      N1032   1.438       .  S
C1026      C1027   1.404       .  A
C1026      H1031   1.083       .  S
C1027      C1028   1.418       .  A
C1028      N1029   1.432       .  S
N1029      H1033   1.041       .  S
N1029      H1034   1.045       .  S
N1032      H1035   1.045       .  S
N1032      H1036   1.046       .  S
C1037      C1038   1.409       .  A
C1037      C1042   1.407       .  A
C1037      H1044   1.083       .  S
C1038      C1039   1.409       .  A
C1039      C2328   1.403       .  A
C1039      N1046   1.431       .  S
C1040      C1041   1.406       .  A
C1040      C2327   1.403       .  A
C1040      H1045   1.084       .  S
C1041      C2330   1.414       .  A
C1042      C2329   1.414       .  A
C1042      N1043   1.437       .  S
N1043      H1047   1.046       .  S
N1043      H2336   1.043       .  S
N1046      H1049   1.046       .  S
N1046      H1050   1.046       .  S
H1048      N2331   1.043       .  S
C1051      C1052   1.402       .  A
C1051      C1056   1.402       .  A
C1051      H1058   1.082       .  S
C1052      C1053   1.413       .  A
C1053      C1054   1.414       .  A
C1053      N1060   1.436       .  S
C1054      C1055   1.402       .  A
C1054      H1059   1.083       .  S
C1055      C1056   1.410       .  A
C1056      N1057   1.439       .  S
N1057      H1061   1.045       .  S
N1057      H1062   1.045       .  S
N1060      H1063   1.045       .  S
N1060      H1064   1.045       .  S
C1065      C1066   1.401       .  A
C1065      C1070   1.406       .  A
C1065      H1072   1.084       .  S
C1066      C1067   1.406       .  A
C1067      C1068   1.405       .  A
C1067      N1074   1.436       .  S
C1068      C1069   1.409       .  A
C1068      H1073   1.083       .  S
C1069      C1070   1.421       .  A
C1070      N1071   1.436       .  S
N1071      H1075   1.045   1_455  S
N1071      H1076   1.043   1_455  S
N1074      H1077   1.045       .  S
N1074      H1078   1.046       .  S
C1079      C1080   1.400   1_556  A
C1079      C1084   1.410       .  A
C1079      H1086   1.084       .  S
C1080      C1081   1.417       .  A
C1081      C1082   1.400       .  A
C1081      N1088   1.436       .  S
C1082      C1083   1.401       .  A
C1082      H1087   1.084       .  S
C1083      C1084   1.416   1_554  A
C1084      N2373   1.435       .  S
N1085      C2372   1.435       .  S
N1085      H1089   1.045       .  S
N1085      H1090   1.045       .  S
N1088      H1091   1.044       .  S
N1088      H1092   1.044       .  S
C1093      C1094   1.415       .  A
C1093      C1098   1.408       .  A
C1093      H1100   1.081       .  S
C1094      C1095   1.426       .  A
C1095      C1096   1.409       .  A
C1095      N1102   1.428   1_554  S
C1096      C1097   1.398       .  A
C1096      H1101   1.085   1_554  S
C1097      C1098   1.412       .  A
C1098      N1099   1.437       .  S
N1099      H1103   1.046       .  S
N1099      H1104   1.044       .  S
N1102      H1105   1.046       .  S
N1102      H1106   1.046       .  S
C1107      C1108   1.396       .  A
C1107      C1112   1.403       .  A
C1107      H1114   1.083       .  S
C1108      C1109   1.416       .  A
C1109      C1110   1.401       .  A
C1109      N1116   1.437       .  S
C1110      C1111   1.404       .  A
C1110      H1115   1.084       .  S
C1111      C1112   1.415       .  A
C1112      N1113   1.427       .  S
N1113      H1117   1.046       .  S
N1113      H1118   1.046       .  S
N1116      H1119   1.044       .  S
N1116      H1120   1.046       .  S
C1121      C1122   1.404   1_556  A
C1121      C1126   1.401       .  A
C1121      H2416   1.084       .  S
C1122      C1123   1.413       .  A
C1123      C1124   1.404       .  A
C1123      N1130   1.438       .  S
C1124      C1125   1.402       .  A
C1124      H1129   1.083       .  S
C1125      C1126   1.414   1_554  A
C1126      N2415   1.438       .  S
N1127      C2414   1.438       .  S
N1127      H1131   1.046       .  S
N1127      H2420   1.043       .  S
H1128      C2409   1.084       .  S
N1130      H1133   1.044       .  S
N1130      H1134   1.045       .  S
H1132      N2415   1.043       .  S
C1135      C1136   1.401       .  A
C1135      C1140   1.401       .  A
C1135      H1142   1.084       .  S
C1136      C1137   1.411       .  A
C1137      C1138   1.404       .  A
C1137      N1144   1.431       .  S
C1138      C1139   1.400       .  A
C1138      H1143   1.084       .  S
C1139      C1140   1.418       .  A
C1140      N1141   1.438       .  S
N1141      H1145   1.046       .  S
N1141      H1146   1.044       .  S
N1144      H1147   1.046       .  S
N1144      H1148   1.046       .  S
C1149      C1150   1.404       .  A
C1149      C1154   1.403       .  A
C1149      H1156   1.077       .  S
C1150      C1151   1.397       .  A
C1151      C1152   1.395       .  A
C1151      N1158   1.427       .  S
C1152      C1153   1.403       .  A
C1152      H1157   1.084       .  S
C1153      C1154   1.419       .  A
C1154      N1155   1.439       .  S
N1155      H1159   1.046       .  S
N1155      H1160   1.040       .  S
N1158      H1161   1.043       .  S
N1158      H1162   1.045       .  S
C1163      C1164   1.404       .  A
C1163      C1168   1.402       .  A
C1163      H1170   1.081       .  S
C1164      C1165   1.420       .  A
C1165      C1166   1.407       .  A
C1165      N1172   1.438       .  S
C1166      C1167   1.405       .  A
C1166      H1171   1.084       .  S
C1167      C1168   1.414       .  A
C1168      N1169   1.436       .  S
N1169      H1173   1.046       .  S
N1169      H1174   1.046       .  S
N1172      H1175   1.041       .  S
N1172      H1176   1.046       .  S
C1177      C1178   1.401       .  A
C1177      C1182   1.408       .  A
C1177      H1184   1.084       .  S
C1178      C1179   1.413       .  A
C1179      C1180   1.407       .  A
C1179      N1186   1.439       .  S
C1180      C1181   1.404       .  A
C1180      H1185   1.082       .  S
C1181      C1182   1.410       .  A
C1182      N1183   1.430       .  S
N1183      H1187   1.045       .  S
N1183      H1188   1.046       .  S
N1186      H1189   1.045       .  S
N1186      H1190   1.046       .  S
C1191      C1192   1.405       .  A
C1191      C1196   1.408       .  A
C1191      H1198   1.083       .  S
C1192      C1193   1.407       .  A
C1193      C2482   1.402       .  A
C1193      N1200   1.432       .  S
C1194      C1195   1.404       .  A
C1194      C2481   1.402       .  A
C1194      H1199   1.085       .  S
C1195      C2484   1.415       .  A
C1196      C2483   1.415       .  A
C1196      N1197   1.437       .  S
N1197      H1201   1.046       .  S
N1197      H2490   1.044       .  S
N1200      H1203   1.046       .  S
N1200      H1204   1.046       .  S
H1202      N2485   1.044       .  S
C1205      C1206   1.404   1_556  A
C1205      C1210   1.415       .  A
C1205      H1212   1.083       .  S
C1206      C1207   1.414       .  A
C1207      C1208   1.400       .  A
C1207      N1214   1.438       .  S
C1208      C1209   1.398       .  A
C1208      H1213   1.084       .  S
C1209      C1210   1.424   1_554  A
C1210      N2499   1.436       .  S
N1211      C2498   1.436       .  S
N1211      H1215   1.045       .  S
N1211      H1216   1.042       .  S
N1214      H1217   1.046       .  S
N1214      H1218   1.044       .  S
C1219      C1220   1.415       .  A
C1219      C1224   1.386       .  A
C1219      H1226   1.081       .  S
C1220      C1221   1.428       .  A
C1221      C1222   1.423       .  A
C1221      N1228   1.436       .  S
C1222      C1223   1.411       .  A
C1222      H1227   1.084       .  S
C1223      C1224   1.399       .  A
C1224      N1225   1.435       .  S
N1225      H1229   1.044       .  S
N1225      H1230   1.046       .  S
N1228      H1231   1.038       .  S
N1228      H1232   1.046       .  S
C1233      C1234   1.402       .  A
C1233      C1238   1.414       .  A
C1233      H1240   1.083       .  S
C1234      C1235   1.413       .  A
C1235      C1236   1.384       .  A
C1235      N1242   1.422       .  S
C1236      C1237   1.392       .  A
C1236      H1241   1.085       .  S
C1237      C1238   1.426       .  A
C1238      N1239   1.434       .  S
N1239      H1243   1.045       .  S
N1239      H1244   1.041       .  S
N1242      H1245   1.046       .  S
N1242      H1246   1.043       .  S
C1247      C1248   1.407   1_556  A
C1247      C1252   1.424       .  A
C1247      H2542   1.083       .  S
C1248      C1249   1.401       .  A
C1249      C1250   1.398       .  A
C1249      N1256   1.433       .  S
C1250      C1251   1.400       .  A
C1250      H1255   1.080       .  S
C1251      C1252   1.422   1_554  A
C1252      N2541   1.439       .  S
N1253      C2540   1.439       .  S
N1253      H1257   1.045       .  S
N1253      H1258   1.042       .  S
H1254      C2535   1.083       .  S
N1256      H1259   1.046       .  S
N1256      H1260   1.046       .  S
C1261      C1262   1.405   1_556  A
C1261      C1266   1.411       .  A
C1261      H1268   1.083       .  S
C1262      C1263   1.430       .  A
C1263      C1264   1.381       .  A
C1263      N1270   1.442       .  S
C1264      C1265   1.385       .  A
C1264      H1269   1.083       .  S
C1265      C1266   1.411   1_554  A
C1266      N2555   1.430       .  S
N1267      C2554   1.430       .  S
N1267      H1271   1.045       .  S
N1267      H1272   1.046       .  S
N1270      H1273   1.046       .  S
N1270      H1274   1.046       .  S
C1275      C1276   1.409       .  A
C1275      C1280   1.404       .  A
C1275      H1282   1.084       .  S
C1276      C1277   1.421       .  A
C1277      C1278   1.412       .  A
C1277      N1284   1.436       .  S
C1278      C1279   1.407       .  A
C1278      H1283   1.083       .  S
C1279      C1280   1.405       .  A
C1280      N1281   1.439       .  S
N1281      H1285   1.043       .  S
N1281      H1286   1.040       .  S
N1284      H1287   1.040       .  S
N1284      H1288   1.046       .  S
N1289      N1290   1.333       .  A
N1289      N1295   1.311       .  A
N1289     Mn1318   2.240       .  S
N1290      C1297   1.367       .  A
N1291      N1293   1.309       .  A
N1291      N1292   1.302       .  A
N1291     Mn1307   2.123       .  S
N1292      C1298   1.339       .  A
N1293      N1294   1.339       .  A
N1293     Mn1318   2.274       .  S
N1294      C1298   1.374       .  A
N1295      N1296   1.312       .  A
N1295     Mn1307   2.165       .  S
N1296      C1297   1.344       .  A
C1297      C2564   1.495       .  S
C1298      C2508   1.511       .  S
N1299      N1305   1.314       .  A
N1299      N1300   1.334       .  A
N1299     Mn1329   2.256       .  S
N1300      C1308   1.367       .  A
N1301      N1302   1.295       .  A
N1301      N1303   1.308       .  A
N1301     Mn1307   2.107       .  S
N1302      C1309   1.329       .  A
N1303      N1304   1.335       .  A
N1303     Mn1329   2.233       .  S
N1304      C1309   1.370       .  A
N1305      N1306   1.310       .  A
N1305     Mn1307   2.160       .  S
N1306      C1308   1.343       .  A
Mn1307    Cl1331   2.466       .  S
C1308      C2494   1.491       .  S
C1309      C2550   1.482       .  S
N1310      N1311   1.320       .  A
N1310      N1316   1.326       .  A
N1310     Mn1318   2.207       .  S
N1311      C1319   1.346       .  A
N1312      N1314   1.318       .  A
N1312      N1313   1.309       .  A
N1312     Mn1330   2.175       .  S
N1313      C1320   1.341       .  A
N1314      N1315   1.332       .  A
N1314     Mn1318   2.243       .  S
N1315      C1320   1.364       .  A
N1316      N1317   1.325       .  A
N1316     Mn1330   2.238       .  S
N1317      C1319   1.355       .  A
Mn1318    Cl1331   2.612       .  S
C1319      C2466   1.479       .  S
C1320      C2522   1.484       .  S
N1321      N1322   1.333       .  A
N1321      N1327   1.319       .  A
N1321     Mn1329   2.239       .  S
N1322      C1332   1.362       .  A
N1323      N1324   1.323       .  A
N1323      N1325   1.323       .  A
N1323     Mn1330   2.223       .  S
N1324      C1333   1.353       .  A
N1325      N1326   1.322       .  A
N1325     Mn1329   2.212       .  S
N1326      C1333   1.349       .  A
N1327      N1328   1.314       .  A
N1327     Mn1330   2.209       .  S
N1328      C1332   1.348       .  A
Mn1329    Cl1331   2.617       .  S
Mn1330    Cl1331   2.479       .  S
C1332      C2536   1.488       .  S
C1333      C2483   1.478       .  S
C1334      C1335   1.367       .  D
C1334      C2438   1.486       .  S
C1334      C2452   1.505   1_655  S
C1335      C2424   1.491   1_655  S
C1335      C2567   1.498       .  S
N1336      N1337   1.327       .  A
N1336      N1342   1.314       .  A
N1336     Mn1365   2.219       .  S
N1337      C1344   1.359       .  A
N1338      N1340   1.316       .  A
N1338      N1339   1.312       .  A
N1338     Mn1354   2.159       .  S
N1339      C1345   1.342       .  A
N1340      N1341   1.330       .  A
N1340     Mn1365   2.255       .  S
N1341      C1345   1.363       .  A
N1342      N1343   1.313       .  A
N1342     Mn1354   2.167       .  S
N1343      C1344   1.343       .  A
C1344      C2413   1.468       .  S
C1345      C2368   1.476       .  S
N1346      N1352   1.316       .  A
N1346      N1347   1.327       .  A
N1346     Mn1376   2.231       .  S
N1347      C1355   1.358       .  A
N1348      N1349   1.311       .  A
N1348      N1350   1.313       .  A
N1348     Mn1354   2.153       .  S
N1349      C1356   1.341       .  A
N1350      N1351   1.329       .  A
N1350     Mn1376   2.232       .  S
N1351      C1356   1.361       .  A
N1352      N1353   1.317       .  A
N1352     Mn1354   2.186       .  S
N1353      C1355   1.348       .  A
Mn1354    Cl1378   2.500       .  S
C1355      C2354   1.476       .  S
C1356      C2427   1.469       .  S
N1357      N1358   1.318       .  A
N1357      N1363   1.322       .  A
N1357     Mn1365   2.201       .  S
N1358      C1366   1.347       .  A
N1359      N1361   1.316       .  A
N1359      N1360   1.311       .  A
N1359     Mn1377   2.159       .  S
N1360      C1367   1.338       .  A
N1361      N1362   1.333       .  A
N1361     Mn1365   2.261       .  S
N1362      C1367   1.367       .  A
N1363      N1364   1.326       .  A
N1363     Mn1377   2.228       .  S
N1364      C1366   1.356       .  A
Mn1365    Cl1378   2.582       .  S
C1366      C2329   1.483       .  S
C1367      C2385   1.479       .  S
N1368      N1369   1.328       .  A
N1368      N1374   1.315       .  A
N1368     Mn1376   2.228       .  S
N1369      C1379   1.361       .  A
N1370      N1371   1.323       .  A
N1370      N1372   1.322       .  A
N1370     Mn1377   2.218       .  S
N1371      C1380   1.354       .  A
N1372      N1373   1.321       .  A
N1372     Mn1376   2.212       .  S
N1373      C1380   1.349       .  A
N1374      N1375   1.312       .  A
N1374     Mn1377   2.171       .  S
N1375      C1379   1.341       .  A
Mn1376    Cl1378   2.585       .  S
Mn1377    Cl1378   2.505       .  S
C1379      C2396   1.470       .  S
C1380      C2343   1.478       .  S
C1381      C2298   1.484   1_554  S
C1381      C2312   1.477   1_654  S
C1382      C2410   1.501   1_655  S
C1382      C2553   1.477       .  S
N1383      N1384   1.324       .  A
N1383      N1389   1.311       .  A
N1383     Mn1412   2.205       .  S
N1384      C1391   1.356       .  A
N1385      N1387   1.312       .  A
N1385      N1386   1.310       .  A
N1385     Mn1401   2.161       .  S
N1386      C1392   1.343       .  A
N1387      N1388   1.326       .  A
N1387     Mn1412   2.203       .  S
N1388      C1392   1.358       .  A
N1389      N1390   1.312       .  A
N1389     Mn1401   2.157       .  S
N1390      C1391   1.348       .  A
C1391      C2301   1.465       .  S
C1392      C2284   1.461       .  S
N1393      N1399   1.311       .  A
N1393      N1394   1.334       .  A
N1393     Mn1423   2.234       .  S
N1394      C1402   1.367       .  A
N1395      N1396   1.315       .  A
N1395      N1397   1.315       .  A
N1395     Mn1401   2.173       .  S
N1396      C1403   1.349       .  A
N1397      N1398   1.322       .  A
N1397     Mn1423   2.214       .  S
N1398      C1403   1.356       .  A
N1399      N1400   1.301       .  A
N1399     Mn1401   2.124       .  S
N1400      C1402   1.335       .  A
Mn1401    Cl1425   2.515       .  S
C1402      C2270   1.479       .  S
C1403      C2441   1.473       .  S
N1404      N1405   1.324       .  A
N1404      N1410   1.317       .  A
N1404     Mn1412   2.210       .  S
N1405      C1413   1.358       .  A
N1406      N1408   1.317       .  A
N1406      N1407   1.333       .  A
N1406     Mn1424   2.249       .  S
N1407      C1414   1.368       .  A
N1408      N1409   1.306       .  A
N1408     Mn1412   2.163       .  S
N1409      C1414   1.341       .  A
N1410      N1411   1.315       .  A
N1410     Mn1424   2.199       .  S
N1411      C1413   1.350       .  A
Mn1412    Cl1425   2.555       .  S
C1413      C2231   1.487       .  S
C1414      C2242   1.502   1_556  S
N1415      N1416   1.313       .  A
N1415      N1421   1.320       .  A
N1415     Mn1423   2.192       .  S
N1416      C1426   1.343       .  A
N1417      N1418   1.312       .  A
N1417      N1419   1.319       .  A
N1417     Mn1424   2.204       .  S
N1418      C1427   1.346       .  A
N1419      N1420   1.329       .  A
N1419     Mn1423   2.229       .  S
N1420      C1427   1.363       .  A
N1421      N1422   1.330       .  A
N1421     Mn1424   2.239       .  S
N1422      C1426   1.362       .  A
Mn1423    Cl1425   2.563       .  S
Mn1424    Cl1425   2.540       .  S
C1426      C2256   1.479       .  S
C1427      C2217   1.497       .  S
N1428      N1429   1.324       .  A
N1428      N1434   1.310       .  A
N1428     Mn1457   2.205       .  S
N1429      C1436   1.359       .  A
N1430      N1432   1.307       .  A
N1430      N1431   1.302       .  A
N1430     Mn1446   2.131       .  S
N1431      C1437   1.340       .  A
N1432      N1433   1.328       .  A
N1432     Mn1457   2.196       .  S
N1433      C1437   1.361       .  A
N1434      N1435   1.318       .  A
N1434     Mn1446   2.191       .  S
N1435      C1436   1.353       .  A
C1436      C2455   1.492       .  S
C1437      C2200   1.476       .  S
N1438      N1444   1.310       .  A
N1438      N1439   1.331       .  A
N1438     Mn1468   2.227       .  S
N1439      C1447   1.365       .  A
N1440      N1441   1.305       .  A
N1440      N1442   1.309       .  A
N1440     Mn1446   2.145       .  S
N1441      C1448   1.342       .  A
N1442      N1443   1.321       .  A
N1442     Mn1468   2.179       .  S
N1443      C1448   1.356       .  A
N1444      N1445   1.305       .  A
N1444     Mn1446   2.135       .  S
N1445      C1447   1.339       .  A
Mn1446    Cl1470   2.487       .  S
C1447      C2186   1.488       .  S
C1448      C2315   1.465       .  S
N1449      N1450   1.321       .  A
N1449      N1455   1.319       .  A
N1449     Mn1457   2.204       .  S
N1450      C1458   1.355       .  A
N1451      N1453   1.317       .  A
N1451      N1452   1.335       .  A
N1451     Mn1469   2.264       .  S
N1452      C1459   1.371       .  A
N1453      N1454   1.304       .  A
N1453     Mn1457   2.147       .  S
N1454      C1459   1.337       .  A
N1455      N1456   1.318       .  A
N1455     Mn1469   2.207       .  S
N1456      C1458   1.350       .  A
Mn1457    Cl1470   2.562       .  S
C1458      C2144   1.478       .  S
C1459      C2158   1.502       .  S
N1460      N1461   1.314       .  A
N1460      N1466   1.321       .  A
N1460     Mn1468   2.185       .  S
N1461      C1471   1.342       .  A
N1462      N1463   1.319       .  A
N1462      N1464   1.320       .  A
N1462     Mn1469   2.221       .  S
N1463      C1472   1.350       .  A
N1464      N1465   1.321       .  A
N1464     Mn1468   2.196       .  S
N1465      C1472   1.352       .  A
N1466      N1467   1.331       .  A
N1466     Mn1469   2.254       .  S
N1467      C1471   1.364       .  A
Mn1468    Cl1470   2.568       .  S
Mn1469    Cl1470   2.531       .  S
C1471      C2172   1.480   1_556  S
C1472      C2133   1.466       .  S
C1473      C1474   1.371       .  D
C1473      C2399   1.503       .  S
C1473      C2525   1.492       .  S
C1474      C2203   1.492       .  S
C1474      C2273   1.484       .  S
C1475      C2189   1.499       .  S
C1475      C2287   1.493       .  S
C1476      C2382   1.537       .  S
C1476      C2539   1.509       .  S
C1477      C1478   1.369       .  D
C1477      C2326   1.498       .  S
C1477      C2480   1.492       .  S
C1478      C2340   1.493       .  S
C1478      C2469   1.494       .  S
C1479      C1480   1.386       .  D
C1479      C2161   1.500   1_655  S
C1479      C2259   1.501       .  S
C1480      C2175   1.508   1_655  S
C1480      C2245   1.510       .  S
C1481      C1482   1.377       .  D
C1482      C2105   1.494       .  S
C1482      C2116   1.507       .  S
C1483      C1484   1.369       .  D
C1483      C2147   1.488       .  S
C1483      C2214   1.501       .  S
C1484      C2074   1.505       .  S
C1484      C2091   1.494       .  S
N1485      N1486   1.335       .  A
N1485      N1491   1.311       .  A
N1485     Mn1514   2.261       .  S
N1486      C1493   1.370       .  A
N1487      N1489   1.311       .  A
N1487      N1488   1.312       .  A
N1487     Mn1503   2.159       .  S
N1488      C1494   1.343       .  A
N1489      N1490   1.333       .  A
N1489     Mn1514   2.243       .  S
N1490      C1494   1.366       .  A
N1491      N1492   1.305       .  A
N1491     Mn1503   2.134       .  S
N1492      C1493   1.341       .  A
C1493      C2102   1.500       .  S
C1494      C2046   1.488       .  S
N1495      N1501   1.309       .  A
N1495      N1496   1.335       .  A
N1495     Mn1525   2.242       .  S
N1496      C1504   1.370       .  A
N1497      N1498   1.312       .  A
N1497      N1499   1.315       .  A
N1497     Mn1503   2.160       .  S
N1498      C1505   1.343       .  A
N1499      N1500   1.330       .  A
N1499     Mn1525   2.250       .  S
N1500      C1505   1.365       .  A
N1501      N1502   1.299       .  A
N1501     Mn1503   2.121       .  S
N1502      C1504   1.331       .  A
Mn1503    Cl1527   2.479       .  S
C1504      C2060   1.489       .  S
C1505      C2077   1.485       .  S
N1506      N1507   1.330       .  A
N1506      N1512   1.317       .  A
N1506     Mn1514   2.236       .  S
N1507      C1515   1.362       .  A
N1508      N1510   1.324       .  A
N1508      N1509   1.325       .  A
N1508     Mn1526   2.226       .  S
N1509      C1516   1.354       .  A
N1510      N1511   1.321       .  A
N1510     Mn1514   2.216       .  S
N1511      C1516   1.348       .  A
N1512      N1513   1.313       .  A
N1512     Mn1526   2.183       .  S
N1513      C1515   1.343       .  A
Mn1514    Cl1527   2.601       .  S
C1515      C2035   1.478       .  S
C1516      C2004   1.481       .  S
N1517      N1518   1.321       .  A
N1517      N1523   1.325       .  A
N1517     Mn1525   2.219       .  S
N1518      C1528   1.349       .  A
N1519      N1520   1.305       .  A
N1519      N1521   1.316       .  A
N1519     Mn1526   2.167       .  S
N1520      C1529   1.342       .  A
N1521      N1522   1.335       .  A
N1521     Mn1525   2.244       .  S
N1522      C1529   1.368       .  A
N1523      N1524   1.326       .  A
N1523     Mn1526   2.228       .  S
N1524      C1528   1.355       .  A
Mn1525    Cl1527   2.605       .  S
Mn1526    Cl1527   2.488       .  S
C1528      C1990   1.485       .  S
C1529      C2018   1.497       .  S
N1530      N1531   1.328       .  A
N1530      N1536   1.315       .  A
N1530     Mn1559   2.235       .  S
N1531      C1538   1.361       .  A
N1532      N1534   1.313       .  A
N1532      N1533   1.313       .  A
N1532     Mn1548   2.162       .  S
N1533      C1539   1.343       .  A
N1534      N1535   1.329       .  A
N1534     Mn1559   2.235       .  S
N1535      C1539   1.362       .  A
N1536      N1537   1.312       .  A
N1536     Mn1548   2.165       .  S
N1537      C1538   1.344       .  A
C1538      C2088   1.473       .  S
C1539      C1962   1.476       .  S
N1540      N1546   1.314       .  A
N1540      N1541   1.328       .  A
N1540     Mn1570   2.229       .  S
N1541      C1549   1.361       .  A
N1542      N1543   1.315       .  A
N1542      N1544   1.316       .  A
N1542     Mn1548   2.170       .  S
N1543      C1550   1.344       .  A
N1544      N1545   1.330       .  A
N1544     Mn1570   2.255       .  S
N1545      C1550   1.364       .  A
N1546      N1547   1.311       .  A
N1546     Mn1548   2.155       .  S
N1547      C1549   1.341       .  A
Mn1548    Cl1572   2.502       .  S
C1549      C1979   1.469       .  S
C1550      C2119   1.483       .  S
N1551      N1552   1.329       .  A
N1551      N1557   1.317       .  A
N1551     Mn1559   2.230       .  S
N1552      C1560   1.360       .  A
N1553      N1555   1.323       .  A
N1553      N1554   1.324       .  A
N1553     Mn1571   2.221       .  S
N1554      C1561   1.354       .  A
N1555      N1556   1.321       .  A
N1555     Mn1559   2.214       .  S
N1556      C1561   1.348       .  A
N1557      N1558   1.313       .  A
N1557     Mn1571   2.181       .  S
N1558      C1560   1.343       .  A
Mn1559    Cl1572   2.585       .  S
C1560      C1948   1.471       .  S
C1561      C1920   1.481       .  S
N1562      N1563   1.319       .  A
N1562      N1568   1.322       .  A
N1562     Mn1570   2.205       .  S
N1563      C1573   1.348       .  A
N1564      N1565   1.312       .  A
N1564      N1566   1.317       .  A
N1564     Mn1571   2.170       .  S
N1565      C1574   1.341       .  A
N1566      N1567   1.333       .  A
N1566     Mn1570   2.260       .  S
N1567      C1574   1.367       .  A
N1568      N1569   1.326       .  A
N1568     Mn1571   2.233       .  S
N1569      C1573   1.357       .  A
Mn1570    Cl1572   2.584       .  S
Mn1571    Cl1572   2.513       .  S
C1573      C1906   1.484       .  S
C1574      C1934   1.484       .  S
C1575      C1576   1.363       .  D
C1575      C1965   1.506       .  S
C1575      C2063   1.483       .  S
C1576      C1878   1.477       .  S
C1576      C1895   1.486       .  S
C1577      C1976   1.502       .  S
C1577      C2049   1.514       .  S
C1578      C1850   1.500       .  S
C1578      C1864   1.485       .  S
N1579      N1580   1.322       .  A
N1579      N1585   1.309       .  A
N1579     Mn1608   2.192       .  S
N1580      C1587   1.359       .  A
N1581      N1583   1.309       .  A
N1581      N1582   1.302       .  A
N1581     Mn1597   2.128       .  S
N1582      C1588   1.335       .  A
N1583      N1584   1.330       .  A
N1583     Mn1608   2.206       .  S
N1584      C1588   1.361       .  A
N1585      N1586   1.307       .  A
N1585     Mn1597   2.140       .  S
N1586      C1587   1.342       .  A
C1587      C1881   1.468       .  S
C1588      C1836   1.468       .  S
N1589      N1595   1.307       .  A
N1589      N1590   1.334       .  A
N1589     Mn1619   2.230       .  S
N1590      C1598   1.369       .  A
N1591      N1592   1.317       .  A
N1591      N1593   1.311       .  A
N1591     Mn1597   2.171       .  S
N1592      C1599   1.349       .  A
N1593      N1594   1.324       .  A
N1593     Mn1619   2.217       .  S
N1594      C1599   1.360       .  A
N1595      N1596   1.299       .  A
N1595     Mn1597   2.111       .  S
N1596      C1598   1.329       .  A
Mn1597    Cl1621   2.468       .  S
C1598      C1822   1.483       .  S
C1599      C1853   1.487       .  S
N1600      N1601   1.322       .  A
N1600      N1606   1.320       .  A
N1600     Mn1608   2.195       .  S
N1601      C1609   1.351       .  A
N1602      N1604   1.318       .  A
N1602      N1603   1.336       .  A
N1602     Mn1620   2.265       .  S
N1603      C1610   1.369       .  A
N1604      N1605   1.307       .  A
N1604     Mn1608   2.155       .  S
N1605      C1610   1.338       .  A
N1606      N1607   1.321       .  A
N1606     Mn1620   2.235       .  S
N1607      C1609   1.353       .  A
Mn1608    Cl1621   2.567       .  S
C1609      C1780   1.472       .  S
C1610      C1794   1.490       .  S
N1611      N1612   1.305       .  A
N1611      N1617   1.319       .  A
N1611     Mn1619   2.161       .  S
N1612      C1622   1.337       .  A
N1613      N1614   1.315       .  A
N1613      N1615   1.320       .  A
N1613     Mn1620   2.213       .  S
N1614      C1623   1.349       .  A
N1615      N1616   1.325       .  A
N1615     Mn1619   2.217       .  S
N1616      C1623   1.357       .  A
N1617      N1618   1.336       .  A
N1617     Mn1620   2.264       .  S
N1618      C1622   1.369       .  A
Mn1619    Cl1621   2.568       .  S
Mn1620    Cl1621   2.543       .  S
C1622      C1808   1.489   1_556  S
C1623      C1766   1.481       .  S
N1624      N1625   1.324       .  A
N1624      N1630   1.312       .  A
N1624     Mn1653   2.218       .  S
N1625      C1632   1.360       .  A
N1626      N1628   1.310       .  A
N1626      N1627   1.305       .  A
N1626     Mn1642   2.137       .  S
N1627      C1633   1.340       .  A
N1628      N1629   1.328       .  A
N1628     Mn1653   2.210       .  S
N1629      C1633   1.362       .  A
N1630      N1631   1.311       .  A
N1630     Mn1642   2.155       .  S
N1631      C1632   1.345       .  A
C1632      C1867   1.481       .  S
C1633      C1755   1.475       .  S
N1634      N1640   1.311       .  A
N1634      N1635   1.329       .  A
N1634     Mn1664   2.222       .  S
N1635      C1643   1.362       .  A
N1636      N1637   1.313       .  A
N1636      N1638   1.312       .  A
N1636     Mn1642   2.165       .  S
N1637      C1644   1.347       .  A
N1638      N1639   1.324       .  A
N1638     Mn1664   2.212       .  S
N1639      C1644   1.356       .  A
N1640      N1641   1.307       .  A
N1640     Mn1642   2.135       .  S
N1641      C1643   1.338       .  A
Mn1642    Cl1666   2.514       .  S
C1643      C1741   1.464       .  S
C1644      C1892   1.467       .  S
N1645      N1646   1.327       .  A
N1645      N1651   1.317       .  A
N1645     Mn1653   2.225       .  S
N1646      C1654   1.362       .  A
N1647      N1649   1.319       .  A
N1647      N1648   1.333       .  A
N1647     Mn1665   2.257       .  S
N1648      C1655   1.367       .  A
N1649      N1650   1.311       .  A
N1649     Mn1653   2.174       .  S
N1650      C1655   1.341       .  A
N1651      N1652   1.315       .  A
N1651     Mn1665   2.201       .  S
N1652      C1654   1.347       .  A
Mn1653    Cl1666   2.558       .  S
C1654      C1696   1.493       .  S
C1655      C1713   1.490   1_556  S
N1656      N1657   1.310       .  A
N1656      N1662   1.320       .  A
N1656     Mn1664   2.175       .  S
N1657      C1667   1.340       .  A
N1658      N1659   1.316       .  A
N1658      N1660   1.319       .  A
N1658     Mn1665   2.209       .  S
N1659      C1668   1.350       .  A
N1660      N1661   1.324       .  A
N1660     Mn1664   2.210       .  S
N1661      C1668   1.357       .  A
N1662      N1663   1.330       .  A
N1662     Mn1665   2.242       .  S
N1663      C1667   1.362       .  A
Mn1664    Cl1666   2.560       .  S
Mn1665    Cl1666   2.539       .  S
C1667      C1724   1.473       .  S
C1668      C1682   1.487       .  S
C1669      C1670   1.372       .  D
C1669      C1951   1.507       .  S
C1669      C2021   1.490   1_655  S
C1670      C1738   1.490   1_655  S
C1670      C1839   1.492       .  S
C1671      C1937   1.511       .  S
C1671      C2032   1.514   1_655  S
C1672      C1752   1.482   1_655  S
C1672      C1825   1.486       .  S
C1673      C1674   1.370       .  D
C1673      C1923   1.497       .  S
C1673      C1993   1.497   1_655  S
C1674      C1909   1.498       .  S
C1674      C2007   1.495   1_655  S
C1675      C1676   1.379       .  D
C1675      C1710   1.502       .  S
C1675      C1811   1.499       .  S
C1676      C1727   1.500       .  S
C1676      C1797   1.505       .  S
C1677      C1699   1.518   1_655  S
C1677      C1769   1.489       .  S
C1678      C2371   1.500   1_655  S
C1678      C2497   1.502       .  S
C1679      C1680   1.376   1_545  D
C1679      C1685   1.496   1_655  S
C1679      C1783   1.508       .  S
C1680      C2357   1.511   1_655  S
C1680      C2511   1.497       .  S
C1681      C1682   1.406       .  A
C1681      C1686   1.396       .  A
C1681      H1688   1.077       .  S
C1682      C1683   1.414       .  A
C1683      C1684   1.410       .  A
C1683      N1690   1.437       .  S
C1684      C1685   1.406       .  A
C1684      H1689   1.084       .  S
C1685      C1686   1.404       .  A
C1686      N1687   1.432   1_545  S
N1687      H1691   1.044   1_565  S
N1687      H1692   1.046       .  S
N1690      H1693   1.045       .  S
N1690      H1694   1.046       .  S
C1695      C1696   1.402       .  A
C1695      C1700   1.408       .  A
C1695      H1702   1.084   1_556  S
C1696      C1697   1.420       .  A
C1697      C1698   1.397       .  A
C1697      N1704   1.433       .  S
C1698      C1699   1.406       .  A
C1698      H1703   1.079   1_545  S
C1699      C1700   1.419       .  A
N1701      H1705   1.045       .  S
N1701      H1706   1.046       .  S
N1704      H1707   1.045       .  S
N1704      H1708   1.040       .  S
C1709      C1710   1.409       .  A
C1709      C1714   1.414       .  A
C1709      H1716   1.082       .  S
C1710      C1711   1.419       .  A
C1711      N1718   1.436       .  S
C1712      C1713   1.404       .  A
C1712      H1717   1.085       .  S
C1714      N1715   1.437       .  S
N1715      H1719   1.046       .  S
N1718      H1721   1.037       .  S
C1723      C1724   1.407       .  A
C1723      C1728   1.417       .  A
C1723      H1730   1.083       .  S
C1724      C1725   1.413       .  A
C1725      C1726   1.390       .  A
C1725      N1732   1.440       .  S
C1726      C1727   1.406       .  A
C1726      H1731   1.077       .  S
C1727      C1728   1.413       .  A
C1728      N1729   1.437       .  S
N1729      H1733   1.045       .  S
N1729      H1734   1.042       .  S
N1732      H1735   1.043       .  S
N1732      H1736   1.046       .  S
C1737      C1738   1.404       .  A
C1737      C1742   1.395       .  A
C1737      H1744   1.084   1_455  S
C1738      C1739   1.411       .  A
C1739      C1740   1.408       .  A
C1739      N1746   1.430       .  S
C1740      C1741   1.403       .  A
C1740      H1745   1.084       .  S
C1741      C1742   1.410       .  A
C1742      N1743   1.441       .  S
N1743      H1747   1.046       .  S
N1743      H1748   1.043       .  S
N1746      H1749   1.046       .  S
N1746      H1750   1.046       .  S
C1751      C1752   1.408       .  A
C1751      C1756   1.401       .  A
C1751      H1758   1.079       .  S
C1752      C1753   1.402   1_554  A
C1753      C1754   1.387       .  A
C1753      N1760   1.434       .  S
C1754      C1755   1.407       .  A
C1754      H1759   1.083       .  S
C1755      C1756   1.411   1_556  A
C1756      N1757   1.431       .  S
N1757      H1761   1.045       .  S
N1757      H1762   1.045       .  S
N1760      H1763   1.046       .  S
N1760      H1764   1.046       .  S
C1765      C1766   1.403   1_554  A
C1765      C1770   1.412       .  A
C1766      C1767   1.415       .  A
C1767      C1768   1.391       .  A
C1767      N1774   1.427       .  S
C1768      C1769   1.395       .  A
C1768      H1773   1.085       .  S
C1769      C1770   1.418   1_556  A
N1771      H1775   1.046       .  S
N1771      H1776   1.042       .  S
N1774      H1777   1.042       .  S
N1774      H1778   1.045       .  S
C1779      C1780   1.399       .  A
C1779      C1784   1.407       .  A
C1779      H1786   1.084       .  S
C1780      C1781   1.411       .  A
C1781      C1782   1.398       .  A
C1781      N1788   1.439       .  S
C1782      C1783   1.410       .  A
C1782      H1787   1.084       .  S
C1783      C1784   1.417       .  A
C1784      N1785   1.429       .  S
N1785      H1789   1.045       .  S
N1785      H1790   1.046   1_545  S
N1788      H1791   1.044       .  S
N1788      H1792   1.046       .  S
C1793      C1794   1.404       .  A
C1793      C1798   1.419       .  A
C1793      H1800   1.083       .  S
C1794      C1795   1.417       .  A
C1795      C1796   1.398       .  A
C1795      N1802   1.440       .  S
C1796      C1797   1.400       .  A
C1796      H1801   1.078       .  S
C1797      C1798   1.417       .  A
C1798      N1799   1.434       .  S
N1799      H1803   1.046       .  S
N1799      H1804   1.046       .  S
N1802      H1805   1.046       .  S
N1802      H1806   1.046       .  S
C1807      C1808   1.404       .  A
C1807      H1814   1.083   1_554  S
C1809      C1810   1.390       .  A
C1809      N1816   1.434       .  S
C1810      C1811   1.396       .  A
C1810      H1815   1.074       .  S
C1811      C1812   1.423       .  A
C1812      N1813   1.435       .  S
N1813      H1818   1.044       .  S
N1816      H1819   1.046       .  S
N1816      H1820   1.046       .  S
C1821      C1822   1.402   1_554  A
C1821      C1826   1.407       .  A
C1821      H1828   1.083       .  S
C1822      C1823   1.431       .  A
C1823      C1824   1.379       .  A
C1823      N1830   1.435       .  S
C1824      C1825   1.390   1_556  A
C1824      H1829   1.083       .  S
C1825      C1826   1.419       .  A
N1827      H1831   1.045       .  S
N1827      H1832   1.044       .  S
N1830      H1833   1.045       .  S
N1830      H1834   1.045       .  S
C1835      C1836   1.396       .  A
C1835      C1840   1.401       .  A
C1835      H1842   1.084       .  S
C1836      C1837   1.417       .  A
C1837      C1838   1.387       .  A
C1837      N1844   1.440       .  S
C1838      C1839   1.396       .  A
C1838      H1843   1.082       .  S
C1839      C1840   1.422       .  A
C1840      N1841   1.434       .  S
N1841      H1845   1.045       .  S
N1841      H1846   1.043       .  S
N1844      H1847   1.046       .  S
N1844      H1848   1.046       .  S
C1849      C1850   1.407       .  A
C1849      C1854   1.406       .  A
C1849      H1856   1.075       .  S
C1850      C1851   1.408   1_554  A
C1851      C1852   1.402       .  A
C1851      N1858   1.432       .  S
C1852      C1853   1.407       .  A
C1852      H1857   1.083       .  S
C1853      C1854   1.410   1_556  A
C1854      N1855   1.437       .  S
N1855      H1860   1.046       .  S
N1858      H1861   1.046       .  S
N1858      H1862   1.045       .  S
C1863      C1864   1.397   1_556  A
C1863      C1868   1.388       .  A
C1863      H1870   1.083       .  S
C1864      C1865   1.418       .  A
C1865      C1866   1.401       .  A
C1866      C1867   1.404   1_554  A
C1867      C1868   1.421       .  A
C1868      N1869   1.432       .  S
N1869      H1873   1.045       .  S
N1869      H1874   1.042       .  S
N1872      H1875   1.039       .  S
N1872      H1876   1.046       .  S
C1877      C1878   1.396       .  A
C1877      C1882   1.391       .  A
C1877      H1884   1.084       .  S
C1878      C1879   1.408       .  A
C1879      C1880   1.397       .  A
C1879      N1886   1.433       .  S
C1880      C1881   1.401       .  A
C1880      H1885   1.083       .  S
C1881      C1882   1.418       .  A
C1882      N1883   1.439       .  S
N1883      H1887   1.046       .  S
N1883      H1888   1.046       .  S
N1886      H1889   1.046       .  S
N1886      H1890   1.046       .  S
C1891      C1892   1.398       .  A
C1891      C1896   1.394       .  A
C1891      H1898   1.083       .  S
C1892      C1893   1.415       .  A
C1893      C1894   1.406       .  A
C1893      N1900   1.437       .  S
C1894      C1895   1.406       .  A
C1894      H1899   1.084       .  S
C1895      C1896   1.410       .  A
C1896      N1897   1.439       .  S
N1897      H1901   1.046       .  S
N1897      H1902   1.045       .  S
N1900      H1903   1.043       .  S
N1900      H1904   1.046       .  S
C1905      C1906   1.400       .  A
C1905      H1912   1.084       .  S
C1907      C1908   1.407       .  A
C1907      N1914   1.437       .  S
C1908      C1909   1.401       .  A
C1908      H1913   1.080       .  S
C1909      C1910   1.413       .  A
C1910      N1911   1.431       .  S
N1911      H1916   1.046       .  S
N1914      H1918   1.045       .  S
C1919      C1920   1.402       .  A
C1919      C1924   1.404       .  A
C1919      H1926   1.085       .  S
C1920      C1921   1.415       .  A
C1921      C1922   1.410       .  A
C1921      N1928   1.437       .  S
C1922      C1923   1.406       .  A
C1922      H1927   1.084       .  S
C1923      C1924   1.414       .  A
C1924      N1925   1.438       .  S
N1925      H1929   1.046       .  S
N1925      H1930   1.044       .  S
N1928      H1931   1.044       .  S
N1928      H1932   1.046       .  S
C1933      C1934   1.402       .  A
C1933      C1938   1.404       .  A
C1933      H1940   1.081       .  S
C1934      C1935   1.410       .  A
C1935      C1936   1.407       .  A
C1935      N1942   1.429       .  S
C1936      C1937   1.412       .  A
C1936      H1941   1.078       .  S
C1937      C1938   1.406       .  A
C1938      N1939   1.428       .  S
N1939      H1943   1.046       .  S
N1939      H1944   1.040       .  S
N1942      H1945   1.043       .  S
N1942      H1946   1.045       .  S
C1947      C1948   1.403       .  A
C1947      C1952   1.408       .  A
C1947      H1954   1.084       .  S
C1948      C1949   1.413       .  A
C1949      C1950   1.398       .  A
C1949      N1956   1.438       .  S
C1950      C1951   1.405       .  A
C1950      H1955   1.081       .  S
C1951      C1952   1.411       .  A
C1952      N1953   1.431       .  S
N1953      H1957   1.046       .  S
N1953      H1958   1.046       .  S
N1956      H1959   1.044       .  S
N1956      H1960   1.046       .  S
C1961      C1962   1.404       .  A
C1961      C1966   1.406       .  A
C1961      H1968   1.084       .  S
C1962      C1963   1.417       .  A
C1963      C1964   1.405       .  A
C1963      N1970   1.438       .  S
C1964      C1965   1.404       .  A
C1964      H1969   1.084       .  S
C1965      C1966   1.414       .  A
C1966      N1967   1.437       .  S
N1967      H1971   1.045       .  S
N1967      H1972   1.044       .  S
N1970      H1973   1.042       .  S
N1970      H1974   1.046       .  S
C1975      C1976   1.407       .  A
C1975      C1980   1.402       .  A
C1976      C1977   1.415       .  A
C1977      C1978   1.404       .  A
C1977      N1984   1.436       .  S
C1978      C1979   1.401       .  A
C1978      H1983   1.085       .  S
C1979      C1980   1.413       .  A
C1980      N1981   1.438       .  S
N1981      H1986   1.042       .  S
N1984      H1987   1.041       .  S
N1984      H1988   1.045       .  S
C1989      C1990   1.403       .  A
C1989      C1994   1.412       .  A
C1989      H1996   1.084       .  S
C1990      C1991   1.423       .  A
C1991      C1992   1.405       .  A
C1991      N1998   1.441       .  S
C1992      C1993   1.402       .  A
C1992      H1997   1.082       .  S
C1993      C1994   1.411       .  A
C1994      N1995   1.437       .  S
N1995      H1999   1.045       .  S
N1995      H2000   1.045       .  S
N1998      H2001   1.042       .  S
N1998      H2002   1.046       .  S
C2003      C2008   1.404       .  A
C2003      H2010   1.085       .  S
C2004      C2005   1.416       .  A
C2005      N2012   1.438       .  S
C2006      C2007   1.406       .  A
C2006      H2011   1.082       .  S
C2007      C2008   1.408       .  A
C2008      N2009   1.432       .  S
N2009      H2013   1.046       .  S
N2009      H2014   1.046       .  S
N2012      H2015   1.044       .  S
N2012      H2016   1.046       .  S
C2017      C2018   1.409       .  A
C2017      C2022   1.386       .  A
C2017      H2024   1.084       .  S
C2018      C2019   1.427       .  A
C2019      C2020   1.420       .  A
C2019      N2026   1.436       .  S
C2020      C2021   1.409       .  A
C2020      H2025   1.083       .  S
C2021      C2022   1.394       .  A
C2022      N2023   1.429       .  S
N2023      H2027   1.036       .  S
N2023      H2028   1.046       .  S
N2026      H2029   1.039       .  S
N2026      H2030   1.045       .  S
C2031      C2032   1.411       .  A
C2031      C2036   1.406       .  A
C2032      C2033   1.423       .  A
C2033      C2034   1.402       .  A
C2033      N2040   1.435       .  S
C2034      C2035   1.401       .  A
C2034      H2039   1.085       .  S
C2035      C2036   1.412       .  A
N2037      H2041   1.046       .  S
N2040      H2043   1.045       .  S
N2040      H2044   1.040       .  S
C2045      C2046   1.403       .  A
C2045      C2050   1.398       .  A
C2045      H2052   1.084       .  S
C2046      C2047   1.417       .  A
C2047      C2048   1.413       .  A
C2047      N2054   1.437       .  S
C2048      C2049   1.412       .  A
C2049      C2050   1.413       .  A
C2050      N2051   1.428       .  S
N2051      H2055   1.043       .  S
N2051      H2056   1.039       .  S
N2054      H2057   1.042       .  S
N2054      H2058   1.046       .  S
C2059      C2060   1.407       .  A
C2059      C2064   1.417       .  A
C2059      H2066   1.083       .  S
C2060      C2061   1.431       .  A
C2061      C2062   1.377       .  A
C2061      N2068   1.433       .  S
C2062      C2063   1.387       .  A
C2062      H2067   1.083       .  S
C2063      C2064   1.414       .  A
C2064      N2065   1.436       .  S
N2065      H2069   1.045       .  S
N2065      H2070   1.045       .  S
N2068      H2071   1.045       .  S
N2068      H2072   1.040       .  S
C2073      C2074   1.408       .  A
C2073      C2078   1.407       .  A
C2073      H2080   1.077       .  S
C2074      C2075   1.417       .  A
C2075      C2076   1.400       .  A
C2075      N2082   1.437       .  S
C2076      C2077   1.406       .  A
C2076      H2081   1.085       .  S
C2077      C2078   1.417       .  A
C2078      N2079   1.438       .  S
N2079      H2083   1.046       .  S
N2079      H2084   1.040       .  S
N2082      H2085   1.040       .  S
N2082      H2086   1.045       .  S
C2087      C2088   1.399       .  A
C2087      C2092   1.407       .  A
C2087      H2094   1.084       .  S
C2088      C2089   1.410       .  A
C2089      C2090   1.404       .  A
C2089      N2096   1.437       .  S
C2090      C2091   1.401       .  A
C2090      H2095   1.083       .  S
C2091      C2092   1.414       .  A
C2092      N2093   1.431       .  S
N2093      H2097   1.046       .  S
N2093      H2098   1.046       .  S
N2096      H2099   1.045       .  S
N2096      H2100   1.043       .  S
C2101      C2102   1.411       .  A
C2101      C2106   1.393       .  A
C2101      H2108   1.084       .  S
C2102      C2103   1.424       .  A
C2103      C2104   1.416       .  A
C2103      N2110   1.436       .  S
C2104      C2105   1.408       .  A
C2104      H2109   1.084       .  S
C2105      C2106   1.402       .  A
C2106      N2107   1.438       .  S
N2107      H2111   1.044       .  S
N2107      H2112   1.045       .  S
N2110      H2113   1.039       .  S
N2110      H2114   1.045       .  S
C2115      C2116   1.407       .  A
C2115      C2120   1.407       .  A
C2115      H2122   1.084       .  S
C2116      C2117   1.411       .  A
C2117      C2118   1.407       .  A
C2117      N2124   1.432       .  S
C2118      C2119   1.405       .  A
C2118      H2123   1.084       .  S
C2119      C2120   1.417       .  A
C2120      N2121   1.438       .  S
N2121      H2125   1.046       .  S
N2121      H2126   1.043       .  S
N2124      H2127   1.046       .  S
N2124      H2128   1.043       .  S
C2129      C2130   1.409   1_554  A
C2129      C2134   1.402       .  A
C2130      C2131   1.417       .  A
C2131      C2132   1.400       .  A
C2131      N2138   1.432       .  S
C2132      C2133   1.397       .  A
C2132      H2137   1.085       .  S
C2133      C2134   1.411   1_556  A
C2134      N2135   1.438       .  S
N2135      H2140   1.043       .  S
N2138      H2141   1.045       .  S
N2138      H2142   1.041       .  S
C2143      C2144   1.406       .  A
C2143      C2148   1.396       .  A
C2143      H2150   1.084       .  S
C2144      C2145   1.418       .  A
C2145      C2146   1.401       .  A
C2145      N2152   1.440       .  S
C2146      C2147   1.402       .  A
C2146      H2151   1.079       .  S
C2147      C2148   1.410       .  A
C2148      N2149   1.432       .  S
N2149      H2153   1.043       .  S
N2149      H2154   1.040       .  S
N2152      H2155   1.041       .  S
N2152      H2156   1.046       .  S
C2157      C2158   1.415       .  A
C2157      C2162   1.394       .  A
C2157      H2164   1.083       .  S
C2158      C2159   1.419       .  A
C2159      C2160   1.410       .  A
C2159      N2166   1.438       .  S
C2160      C2161   1.414       .  A
C2160      H2165   1.084       .  S
C2161      C2162   1.414       .  A
C2162      N2163   1.439       .  S
N2163      H2167   1.046       .  S
N2163      H2168   1.034       .  S
N2166      H2169   1.038       .  S
N2166      H2170   1.046       .  S
C2171      C2172   1.397       .  A
C2171      H2178   1.085   1_554  S
C2173      C2174   1.414       .  A
C2173      N2180   1.437       .  S
C2174      C2175   1.406       .  A
C2174      H2179   1.083       .  S
C2175      C2176   1.426       .  A
C2176      N2177   1.438   1_455  S
N2177      H2181   1.046       .  S
N2177      H2182   1.040       .  S
N2180      H2184   1.046       .  S
C2185      C2186   1.414       .  A
C2185      C2190   1.395       .  A
C2185      H2192   1.083       .  S
C2186      C2187   1.415   1_556  A
C2187      C2188   1.404       .  A
C2188      C2189   1.412       .  A
C2189      C2190   1.407   1_554  A
C2190      N2191   1.440       .  S
N2191      H2195   1.045       .  S
N2191      H2196   1.045       .  S
N2194      H2197   1.038       .  S
N2194      H2198   1.046       .  S
C2199      C2200   1.408       .  A
C2199      C2204   1.385       .  A
C2199      H2206   1.084       .  S
C2200      C2201   1.412       .  A
C2201      C2202   1.404       .  A
C2201      N2208   1.437       .  S
C2202      C2203   1.413       .  A
C2202      H2207   1.081       .  S
C2203      C2204   1.405       .  A
C2204      N2205   1.432       .  S
N2205      H2209   1.046       .  S
N2205      H2210   1.046       .  S
N2208      H2211   1.040       .  S
N2208      H2212   1.046       .  S
C2213      C2214   1.395       .  A
C2213      C2218   1.392       .  A
C2213      H2220   1.081       .  S
C2214      C2215   1.416       .  A
C2215      C2216   1.414       .  A
C2215      N2222   1.434       .  S
C2216      C2217   1.405       .  A
C2216      H2221   1.083       .  S
C2217      C2218   1.423       .  A
C2218      N2219   1.428       .  S
N2219      H2223   1.042       .  S
N2219      H2224   1.045       .  S
N2222      H2225   1.045       .  S
N2222      H2226   1.045       .  S
C2227      C2228   1.407   1_554  A
C2227      C2232   1.409       .  A
C2228      C2229   1.406       .  A
C2229      C2230   1.396       .  A
C2229      N2236   1.432       .  S
C2230      C2231   1.406       .  A
C2230      H2235   1.080       .  S
C2231      C2232   1.414   1_556  A
N2233      H2237   1.046       .  S
N2236      H2239   1.046       .  S
N2236      H2240   1.044       .  S
C2241      C2246   1.394       .  A
C2241      H2248   1.083       .  S
C2242      C2243   1.420       .  A
C2243      N2250   1.437   1_554  S
C2244      C2245   1.416       .  A
C2244      H2249   1.084       .  S
C2245      C2246   1.408       .  A
C2246      N2247   1.429       .  S
N2247      H2251   1.046       .  S
N2247      H2252   1.046       .  S
N2250      H2253   1.037       .  S
N2250      H2254   1.046       .  S
C2255      C2256   1.397       .  A
C2255      C2260   1.398       .  A
C2255      H2262   1.085       .  S
C2256      C2257   1.420       .  A
C2257      C2258   1.414       .  A
C2257      N2264   1.437       .  S
C2258      C2259   1.406       .  A
C2258      H2263   1.083       .  S
C2259      C2260   1.418       .  A
C2260      N2261   1.437       .  S
N2261      H2265   1.046       .  S
N2261      H2266   1.044       .  S
N2264      H2267   1.043       .  S
N2264      H2268   1.046       .  S
C2269      C2270   1.406       .  A
C2269      C2274   1.387       .  A
C2269      H2276   1.079       .  S
C2270      C2271   1.410       .  A
C2271      C2272   1.408       .  A
C2271      N2278   1.431       .  S
C2272      C2273   1.412       .  A
C2272      H2277   1.083       .  S
C2273      C2274   1.400       .  A
C2274      N2275   1.438       .  S
N2275      H2279   1.045       .  S
N2275      H2280   1.044       .  S
N2278      H2281   1.045       .  S
N2278      H2282   1.045       .  S
C2283      C2284   1.400   1_554  A
C2283      C2288   1.409       .  A
C2283      H2290   1.084       .  S
C2284      C2285   1.407       .  A
C2285      C2286   1.390       .  A
C2285      N2292   1.438       .  S
C2286      C2287   1.405   1_556  A
C2286      H2291   1.083       .  S
C2287      C2288   1.418       .  A
N2289      H2293   1.046       .  S
N2289      H2294   1.044       .  S
N2292      H2295   1.044       .  S
N2292      H2296   1.040       .  S
C2297      C2298   1.405   1_554  A
C2297      C2302   1.408       .  A
C2298      C2299   1.409       .  A
C2299      C2300   1.383       .  A
C2299      N2306   1.427       .  S
C2300      C2301   1.396       .  A
C2300      H2305   1.085       .  S
C2301      C2302   1.417   1_556  A
N2303      H2307   1.046       .  S
N2303      H2308   1.043       .  S
N2306      H2309   1.045       .  S
N2306      H2310   1.043   1_655  S
C2311      C2312   1.397       .  A
C2311      C2316   1.376       .  A
C2311      H2318   1.083       .  S
C2312      C2313   1.409   1_556  A
C2313      C2314   1.402       .  A
C2313      N2320   1.438       .  S
C2314      C2315   1.404   1_554  A
C2314      H2319   1.083       .  S
C2315      C2316   1.418       .  A
C2316      N2317   1.432       .  S
N2317      H2321   1.041       .  S
N2317      H2322   1.045       .  S
N2320      H2323   1.045       .  S
N2320      H2324   1.046       .  S
C2325      C2326   1.409       .  A
C2325      C2330   1.407       .  A
C2325      H2332   1.083       .  S
C2326      C2327   1.409       .  A
C2327      N2334   1.431       .  S
C2328      C2329   1.406       .  A
C2328      H2333   1.084       .  S
C2330      N2331   1.437   1_556  S
N2331      H2335   1.046       .  S
N2334      H2337   1.046       .  S
N2334      H2338   1.046       .  S
C2339      C2340   1.402       .  A
C2339      C2344   1.402       .  A
C2339      H2346   1.082       .  S
C2340      C2341   1.413       .  A
C2341      C2342   1.414       .  A
C2341      N2348   1.436       .  S
C2342      C2343   1.402       .  A
C2342      H2347   1.083       .  S
C2343      C2344   1.410       .  A
C2344      N2345   1.439       .  S
N2345      H2349   1.045       .  S
N2345      H2350   1.045       .  S
N2348      H2351   1.045       .  S
N2348      H2352   1.045       .  S
C2353      C2354   1.401       .  A
C2353      C2358   1.406       .  A
C2353      H2360   1.084       .  S
C2354      C2355   1.406       .  A
C2355      C2356   1.405       .  A
C2355      N2362   1.436       .  S
C2356      C2357   1.409       .  A
C2356      H2361   1.083       .  S
C2357      C2358   1.421       .  A
C2358      N2359   1.436       .  S
N2359      H2363   1.045   1_455  S
N2359      H2364   1.043   1_455  S
N2362      H2365   1.045       .  S
N2362      H2366   1.046       .  S
C2367      C2368   1.400       .  A
C2367      C2372   1.410       .  A
C2367      H2374   1.084       .  S
C2368      C2369   1.417       .  A
C2369      C2370   1.400       .  A
C2369      N2376   1.436       .  S
C2370      C2371   1.401       .  A
C2370      H2375   1.084       .  S
C2371      C2372   1.416       .  A
N2373      H2377   1.045       .  S
N2373      H2378   1.045       .  S
N2376      H2379   1.044       .  S
N2376      H2380   1.044       .  S
C2381      C2382   1.415       .  A
C2381      C2386   1.408       .  A
C2381      H2388   1.081       .  S
C2382      C2383   1.426       .  A
C2383      C2384   1.409       .  A
C2383      N2390   1.428       .  S
C2384      C2385   1.398       .  A
C2384      H2389   1.085       .  S
C2385      C2386   1.412       .  A
C2386      N2387   1.437       .  S
N2387      H2391   1.046       .  S
N2387      H2392   1.044       .  S
N2390      H2393   1.046       .  S
N2390      H2394   1.046       .  S
C2395      C2396   1.396       .  A
C2395      C2400   1.403       .  A
C2395      H2402   1.083       .  S
C2396      C2397   1.416       .  A
C2397      C2398   1.401       .  A
C2397      N2404   1.437       .  S
C2398      C2399   1.404       .  A
C2398      H2403   1.084       .  S
C2399      C2400   1.415       .  A
C2400      N2401   1.427       .  S
N2401      H2405   1.046       .  S
N2401      H2406   1.046       .  S
N2404      H2407   1.044       .  S
N2404      H2408   1.046       .  S
C2409      C2410   1.404       .  A
C2409      C2414   1.401       .  A
C2410      C2411   1.413       .  A
C2411      C2412   1.404       .  A
C2411      N2418   1.438       .  S
C2412      C2413   1.402       .  A
C2412      H2417   1.083       .  S
C2413      C2414   1.414       .  A
N2415      H2419   1.046       .  S
N2418      H2421   1.044       .  S
N2418      H2422   1.045       .  S
C2423      C2424   1.401       .  A
C2423      C2428   1.401       .  A
C2423      H2430   1.084       .  S
C2424      C2425   1.411       .  A
C2425      C2426   1.404       .  A
C2425      N2432   1.431       .  S
C2426      C2427   1.400       .  A
C2426      H2431   1.084       .  S
C2427      C2428   1.418       .  A
C2428      N2429   1.438       .  S
N2429      H2433   1.046       .  S
N2429      H2434   1.044       .  S
N2432      H2435   1.046       .  S
N2432      H2436   1.046       .  S
C2437      C2438   1.404       .  A
C2437      C2442   1.403       .  A
C2437      H2444   1.077       .  S
C2438      C2439   1.397       .  A
C2439      C2440   1.395       .  A
C2439      N2446   1.427       .  S
C2440      C2441   1.403       .  A
C2440      H2445   1.084       .  S
C2441      C2442   1.419       .  A
C2442      N2443   1.439       .  S
N2443      H2447   1.046       .  S
N2443      H2448   1.040       .  S
N2446      H2449   1.043       .  S
N2446      H2450   1.045       .  S
C2451      C2452   1.404       .  A
C2451      C2456   1.402       .  A
C2451      H2458   1.081       .  S
C2452      C2453   1.420       .  A
C2453      C2454   1.407       .  A
C2453      N2460   1.438       .  S
C2454      C2455   1.405       .  A
C2454      H2459   1.084       .  S
C2455      C2456   1.414       .  A
C2456      N2457   1.436       .  S
N2457      H2461   1.046       .  S
N2457      H2462   1.046       .  S
N2460      H2463   1.041       .  S
N2460      H2464   1.046       .  S
C2465      C2466   1.401       .  A
C2465      C2470   1.408       .  A
C2465      H2472   1.084       .  S
C2466      C2467   1.413       .  A
C2467      C2468   1.407       .  A
C2467      N2474   1.439       .  S
C2468      C2469   1.404       .  A
C2468      H2473   1.082       .  S
C2469      C2470   1.410       .  A
C2470      N2471   1.430       .  S
N2471      H2475   1.045       .  S
N2471      H2476   1.046       .  S
N2474      H2477   1.045       .  S
N2474      H2478   1.046       .  S
C2479      C2480   1.405       .  A
C2479      C2484   1.408       .  A
C2479      H2486   1.083       .  S
C2480      C2481   1.407       .  A
C2481      N2488   1.432       .  S
C2482      C2483   1.404       .  A
C2482      H2487   1.085       .  S
C2484      N2485   1.437       .  S
N2485      H2489   1.046       .  S
N2488      H2491   1.046       .  S
N2488      H2492   1.046       .  S
C2493      C2494   1.404       .  A
C2493      C2498   1.415       .  A
C2493      H2500   1.083       .  S
C2494      C2495   1.414       .  A
C2495      C2496   1.400       .  A
C2495      N2502   1.438       .  S
C2496      C2497   1.398       .  A
C2496      H2501   1.084       .  S
C2497      C2498   1.424       .  A
N2499      H2503   1.045       .  S
N2499      H2504   1.042       .  S
N2502      H2505   1.046       .  S
N2502      H2506   1.044       .  S
C2507      C2508   1.415       .  A
C2507      C2512   1.386       .  A
C2507      H2514   1.081       .  S
C2508      C2509   1.428       .  A
C2509      C2510   1.423       .  A
C2509      N2516   1.436       .  S
C2510      C2511   1.411       .  A
C2510      H2515   1.084       .  S
C2511      C2512   1.399       .  A
C2512      N2513   1.435       .  S
N2513      H2517   1.044       .  S
N2513      H2518   1.046       .  S
N2516      H2519   1.038       .  S
N2516      H2520   1.046       .  S
C2521      C2522   1.402       .  A
C2521      C2526   1.414       .  A
C2521      H2528   1.083       .  S
C2522      C2523   1.413       .  A
C2523      C2524   1.384       .  A
C2523      N2530   1.422       .  S
C2524      C2525   1.392       .  A
C2524      H2529   1.085       .  S
C2525      C2526   1.426       .  A
C2526      N2527   1.434       .  S
N2527      H2531   1.045       .  S
N2527      H2532   1.041       .  S
N2530      H2533   1.046       .  S
N2530      H2534   1.043       .  S
C2535      C2536   1.407       .  A
C2535      C2540   1.424       .  A
C2536      C2537   1.401       .  A
C2537      C2538   1.398       .  A
C2537      N2544   1.433       .  S
C2538      C2539   1.400       .  A
C2538      H2543   1.080       .  S
C2539      C2540   1.422       .  A
N2541      H2545   1.045       .  S
N2541      H2546   1.042       .  S
N2544      H2547   1.046       .  S
N2544      H2548   1.046       .  S
C2549      C2550   1.405       .  A
C2549      C2554   1.411       .  A
C2549      H2556   1.083       .  S
C2550      C2551   1.430       .  A
C2551      C2552   1.381       .  A
C2551      N2558   1.442       .  S
C2552      C2553   1.385       .  A
C2552      H2557   1.083       .  S
C2553      C2554   1.411       .  A
N2555      H2559   1.045       .  S
N2555      H2560   1.046       .  S
N2558      H2561   1.046       .  S
N2558      H2562   1.046       .  S
C2563      C2564   1.409       .  A
C2563      C2568   1.404       .  A
C2563      H2570   1.084       .  S
C2564      C2565   1.421       .  A
C2565      C2566   1.412       .  A
C2565      N2572   1.436       .  S
C2566      C2567   1.407       .  A
C2566      H2571   1.083       .  S
C2567      C2568   1.405       .  A
C2568      N2569   1.439       .  S
N2569      H2573   1.043       .  S
N2569      H2574   1.040       .  S
N2572      H2575   1.040       .  S
N2572      H2576   1.046       .  S
