geometry optimzed in LAMMPS
_audit_creation_date              2020-11-30 
_audit_creation_method            'lammps2cif' 
_symmetry_space_group_name_H-M    'P1' 
_symmetry_Int_Tables_number       1 
_symmetry_cell_setting            triclinic 
loop_ 
_symmetry_equiv_pos_as_xyz 
  x,y,z 
_cell_length_a                    50.09950702 
_cell_length_b                    34.90097899500103 
_cell_length_c                    54.619144707856854 
_cell_angle_alpha                 90.01391380229944 
_cell_angle_beta                  89.99906014358278 
_cell_angle_gamma                 89.99832011516706 
loop_ 
_atom_site_label 
_atom_site_type_symbol 
_atom_site_fract_x 
_atom_site_fract_y 
_atom_site_fract_z 
_atom_site_charge 
N1          N  0.15746274  0.98625639  0.67638322    -0.25800
N2          N  0.14925358  0.00686922  0.65751820    -0.33600
C3          C  0.13048757  0.98733424  0.64521843     0.02600
C4          C  0.12674028  0.95289148  0.65692613     0.08600
C5          C  0.14404294  0.95284982  0.67658912    -0.04500
H6          H  0.11952156  0.99823910  0.62964633     0.09300
H7          H  0.14596148  0.93101672  0.69053488     0.10500
Cu8        Cu  0.16020962  0.06273434  0.65124985     0.44200
Cu9        Cu  0.18416978  0.00668199  0.70228597     0.42000
Cu10       Cu  0.19694896  0.10971027  0.69849594     0.43900
N11         N  0.16622203  0.12093975  0.65206387    -0.33200
N12         N  0.17955738  0.13868308  0.66957002    -0.27400
C13         C  0.17791219  0.17672455  0.66591900    -0.03500
C14         C  0.16260589  0.18291940  0.64520788     0.08700
C15         C  0.15556755  0.14698698  0.63688920     0.02500
H16         H  0.18632748  0.19819609  0.67795044     0.10200
H17         H  0.14283449  0.14023834  0.62147820     0.09200
N18         N  0.21189063  0.07422517  0.72556326    -0.34600
N19         N  0.20797828  0.03677463  0.72668214    -0.26800
C20         C  0.22049954  0.02287311  0.74658697    -0.02000
C21         C  0.23255430  0.05314054  0.75860290     0.06600
C22         C  0.22669268  0.08519699  0.74481665     0.04700
H23         H  0.22012352  0.99318670  0.75226450     0.09800
H24         H  0.23255155  0.11443743  0.74855885     0.08600
C25         C  0.06944085  0.62960053  0.64361542     0.88000
C26         C  0.07142393  0.63358081  0.61565728    -0.52200
C27         C  0.05314784  0.65834839  0.60618218     0.10900
C28         C  0.03470902  0.67662996  0.62526981     0.21900
C29         C  0.07208694  0.67058210  0.65351503    -0.52900
C30         C  0.05379439  0.69507681  0.64375695     0.11000
C31         C  0.04042316  0.61781897  0.64870885    -0.52500
C32         C  0.02230774  0.64271698  0.63899697     0.11600
H33         H  0.08641061  0.61925688  0.60456114     0.16100
H34         H  0.01992736  0.69694595  0.61736530     0.01900
H35         H  0.08757042  0.67966634  0.66617943     0.16400
H36         H  0.03477441  0.59240087  0.65894823     0.16200
C37         C  0.06982406  0.87527160  0.63632334     0.88000
C38         C  0.07231712  0.83582734  0.64852025    -0.52200
C39         C  0.05402077  0.81013680  0.64013992     0.10900
C40         C  0.03506203  0.82598389  0.62058773     0.21900
C41         C  0.07193110  0.86737849  0.60870806    -0.52900
C42         C  0.05364402  0.84143267  0.60060033     0.11000
C43         C  0.04079730  0.88781896  0.64061699    -0.52500
C44         C  0.02265504  0.86173397  0.63229189     0.11600
H45         H  0.08768478  0.82850796  0.66175587     0.16100
H46         H  0.02027751  0.80468874  0.61382065     0.01900
H47         H  0.08702795  0.87999084  0.59691718     0.16400
H48         H  0.03516233  0.91456065  0.64939408     0.16200
N49         N  0.15518916  0.51704598  0.68526850    -0.25800
N50         N  0.14768446  0.49810407  0.66545132    -0.33600
C51         C  0.12975402  0.51903180  0.65306512     0.02600
C52         C  0.12579873  0.55259496  0.66571589     0.08600
C53         C  0.14211430  0.55071053  0.68602444    -0.04500
H54         H  0.11938267  0.50957438  0.63677400     0.09300
H55         H  0.14348894  0.57131214  0.70077493     0.10500
Cu56       Cu  0.15815906  0.44249443  0.65770149     0.44200
Cu57       Cu  0.18011406  0.49407749  0.71174312     0.42000
Cu58       Cu  0.19222008  0.39160963  0.70497682     0.43900
N59         N  0.16467994  0.38441036  0.65650361    -0.33200
N60         N  0.17720180  0.36534444  0.67394327    -0.27400
C61         C  0.17614056  0.32768843  0.66884588    -0.03500
C62         C  0.16201726  0.32306490  0.64728393     0.08700
C63         C  0.15510458  0.35956809  0.63993365     0.02500
H64         H  0.18391136  0.30531453  0.68056775     0.10200
H65         H  0.14303754  0.36743756  0.62429016     0.09200
N66         N  0.20494059  0.42398741  0.73448714    -0.34600
N67         N  0.20139430  0.46138873  0.73668142    -0.26800
C68         C  0.21273159  0.47329341  0.75768390    -0.02000
C69         C  0.22362708  0.44175025  0.76927411     0.06600
C70         C  0.21828347  0.41102219  0.75412652     0.04700
H71         H  0.21265992  0.50257984  0.76417414     0.09800
H72         H  0.22390452  0.38144447  0.75699191     0.08600
N73         N  0.80907482  0.98684981  0.68435509    -0.25800
N74         N  0.81623866  0.00737111  0.66509204    -0.33600
C75         C  0.83432711  0.98779860  0.65199123     0.02600
C76         C  0.83875352  0.95343247  0.66358209     0.08600
C77         C  0.82252940  0.95346308  0.68401364    -0.04500
H78         H  0.84450195  0.99870619  0.63597395     0.09300
H79         H  0.82144361  0.93174251  0.69810535     0.10500
Cu80       Cu  0.80538413  0.06342016  0.65938502     0.44200
Cu81       Cu  0.78386520  0.00745970  0.71147395     0.42000
Cu82       Cu  0.77244299  0.11077025  0.70873079     0.43900
N83         N  0.80081328  0.12185535  0.66102470    -0.33200
N84         N  0.78887504  0.13968308  0.67932612    -0.27400
C85         C  0.79104412  0.17771907  0.67595097    -0.03500
C86         C  0.80524622  0.18383541  0.65458450     0.08700
C87         C  0.81110774  0.14785649  0.64559761     0.02500
H88         H  0.78365903  0.19921004  0.68852763     0.10200
H89         H  0.82270998  0.14100692  0.62946870     0.09200
N90         N  0.75788085  0.07534782  0.73599075    -0.34600
N91         N  0.76126561  0.03777070  0.73674696    -0.26800
C92         C  0.74888845  0.02385197  0.75672666    -0.02000
C93         C  0.73748743  0.05423584  0.76916264     0.06600
C94         C  0.74359236  0.08638370  0.75555473     0.04700
H95         H  0.74878252  0.99401567  0.76208171     0.09800
H96         H  0.73808701  0.11569033  0.75953479     0.08600
C97         C  0.89475213  0.87612072  0.64049303     0.88000
C98         C  0.89110463  0.86832981  0.61299680    -0.52200
C99         C  0.90884132  0.84229341  0.60401957     0.10900
C100        C  0.92843933  0.82665091  0.62309910     0.21900
C101        C  0.89281498  0.83665861  0.65274004    -0.52900
C102        C  0.91054348  0.81088763  0.64349251     0.11000
C103        C  0.92403243  0.88846014  0.64344650    -0.52500
C104        C  0.94160027  0.86225941  0.63424662     0.11600
H105        H  0.87542361  0.88108387  0.60193357     0.16100
H106        H  0.94275653  0.80526826  0.61562991     0.01900
H107        H  0.87817924  0.82939081  0.66666970     0.16400
H108        H  0.93023918  0.91512792  0.65198475     0.16200
C109        C  0.89443672  0.63063134  0.64755715     0.88000
C110        C  0.89258287  0.67162205  0.65756759    -0.52200
C111        C  0.91049307  0.69587156  0.64701494     0.10900
C112        C  0.92845404  0.67721015  0.62769023     0.23100
C113        C  0.89100300  0.63465805  0.61972156    -0.52900
C114        C  0.90891370  0.65918792  0.60944622     0.11000
C115        C  0.92361810  0.61845340  0.65135224    -0.52500
C116        C  0.94135467  0.64312888  0.64084062     0.11600
H117        H  0.87784805  0.68090132  0.67090693     0.16100
H118        H  0.94292316  0.69734784  0.61913973     0.01900
H119        H  0.87534839  0.62055624  0.60930636     0.16400
H120        H  0.92964126  0.59295432  0.66133050     0.16200
N121        N  0.81083852  0.51862515  0.69316598    -0.25800
N122        N  0.81728785  0.49968618  0.67303738    -0.33600
C123        C  0.83428520  0.52079932  0.65972226     0.02600
C124        C  0.83875927  0.55447707  0.67208481     0.08600
C125        C  0.82370283  0.55247764  0.69319554    -0.04500
H126        H  0.84388043  0.51127930  0.64304657     0.09300
H127        H  0.82318601  0.57304561  0.70801368     0.10500
Cu128      Cu  0.80734688  0.44363523  0.66614904     0.44200
Cu129      Cu  0.78782552  0.49530884  0.72094420     0.42000
Cu130      Cu  0.77734123  0.39226181  0.71532505     0.43900
N131        N  0.80241283  0.38522836  0.66573939    -0.33200
N132        N  0.79135849  0.36597652  0.68391020    -0.27400
C133        C  0.79292170  0.32829461  0.67902886    -0.03500
C134        C  0.80586014  0.32385926  0.65683437     0.08700
C135        C  0.81156561  0.36049025  0.64889811     0.02500
H136        H  0.78620500  0.30583316  0.69121566     0.10200
H137        H  0.82240925  0.36857355  0.63256508     0.09200
N138        N  0.76476285  0.42486482  0.74478109    -0.34600
N139        N  0.76774061  0.46241706  0.74660313    -0.26800
C140        C  0.75633920  0.47444253  0.76755136    -0.02000
C141        C  0.74597998  0.44283104  0.77947991     0.06600
C142        C  0.75172391  0.41193801  0.76459806     0.04700
H143        H  0.75583167  0.50390429  0.77368459     0.09800
H144        H  0.74642991  0.38229442  0.76768778     0.08600
C145        C  0.12618893  0.25401494  0.60805273     0.81700
N146        N  0.13541849  0.22020941  0.61678818    -0.76600
C147        C  0.15361424  0.21963089  0.63519623     0.84200
N148        N  0.16245905  0.25307660  0.64492702    -0.76500
C149        C  0.15349113  0.28701807  0.63600614     0.84300
N150        N  0.13532514  0.28740720  0.61754196    -0.78200
C151        C  0.06864837  0.25195544  0.55467859     0.88000
C152        C  0.07102798  0.21593823  0.53860408    -0.52200
C153        C  0.05251855  0.21469609  0.52033150     0.10900
C154        C  0.03347675  0.24901649  0.51984164     0.21900
C155        C  0.07047941  0.28571861  0.53670144    -0.52900
C156        C  0.05197905  0.28387490  0.51844938     0.11000
C157        C  0.03971372  0.25211967  0.56402296    -0.52500
C158        C  0.02136645  0.25057336  0.54559282     0.11600
H159        H  0.08650631  0.19441121  0.54081870     0.16100
H160        H  0.01851029  0.24777548  0.50481459     0.01900
H161        H  0.08561491  0.30795650  0.53771072     0.16400
H162        H  0.03428208  0.25340984  0.58326384     0.16200
C163        C  0.83977135  0.25504823  0.61597560     0.81700
N164        N  0.83108101  0.22118203  0.62509550    -0.76600
C165        C  0.81398618  0.22052884  0.64437062     0.84200
N166        N  0.80571821  0.25392359  0.65456765    -0.76500
C167        C  0.81409185  0.28790608  0.64526152     0.84300
N168        N  0.83114626  0.28840774  0.62592574    -0.78200
C169        C  0.89368389  0.25289890  0.55950821     0.88000
C170        C  0.89082864  0.28667833  0.54165780    -0.52200
C171        C  0.90806884  0.28464803  0.52240189     0.10900
C172        C  0.92646100  0.24959023  0.52276770     0.21900
C173        C  0.89006408  0.21690662  0.54361088    -0.52900
C174        C  0.90731476  0.21545961  0.52433788     0.11000
C175        C  0.92318157  0.25276429  0.56721814    -0.52500
C176        C  0.94026576  0.25102454  0.54780112     0.11600
H177        H  0.87589548  0.30906774  0.54350647     0.16100
H178        H  0.94039441  0.24818931  0.50693368     0.01900
H179        H  0.87466219  0.19553548  0.54670215     0.16400
H180        H  0.92988419  0.25399217  0.58612139     0.16200
N181        N  0.30907723  0.50786409  0.87776992    -0.25800
N182        N  0.31627941  0.48728774  0.89699333    -0.33600
C183        C  0.33440168  0.50679985  0.91008216     0.02600
C184        C  0.33880907  0.54118727  0.89852084     0.08600
C185        C  0.32254377  0.54123633  0.87811879    -0.04500
H186        H  0.34459283  0.49584973  0.92608233     0.09300
H187        H  0.32142057  0.56300846  0.86406402     0.10500
Cu188      Cu  0.30537143  0.43129116  0.90265956     0.44200
Cu189      Cu  0.28378560  0.48730426  0.85072279     0.42000
Cu190      Cu  0.27239282  0.38391928  0.85332064     0.43900
N191        N  0.30069611  0.37290837  0.90108097    -0.33200
N192        N  0.28877582  0.35504601  0.88278423    -0.27400
C193        C  0.29094402  0.31701923  0.88620661    -0.03500
C194        C  0.30511573  0.31096268  0.90760180     0.08700
C195        C  0.31096066  0.34695664  0.91655477     0.02500
H196        H  0.28359136  0.29549234  0.87363894     0.10200
H197        H  0.32256361  0.35385213  0.93267235     0.09200
N198        N  0.25797375  0.41943496  0.82602535    -0.34600
N199        N  0.26133004  0.45702260  0.82535210    -0.26800
C200        C  0.24916713  0.47099771  0.80528256    -0.02000
C201        C  0.23794879  0.44064790  0.79268720     0.06600
C202        C  0.24391983  0.40845140  0.80630443     0.04700
H203        H  0.24914355  0.50084683  0.79994727     0.09800
H204        H  0.23852434  0.37914857  0.80220153     0.08600
C205        C  0.39431245  0.86390571  0.91450103     0.88000
C206        C  0.39251491  0.82288449  0.90454172    -0.52200
C207        C  0.41042908  0.79870894  0.91515515     0.10900
C208        C  0.42833619  0.81746857  0.93448187     0.21900
C209        C  0.39082603  0.85997141  0.94233451    -0.52900
C210        C  0.40874268  0.83551384  0.95266881     0.11000
C211        C  0.42348323  0.87613427  0.91073350    -0.52500
C212        C  0.44122289  0.85153437  0.92130595     0.11600
H213        H  0.37781263  0.81353271  0.89119397     0.16100
H214        H  0.44280985  0.79738938  0.94308146     0.01900
H215        H  0.37513647  0.87407521  0.95270494     0.16400
H216        H  0.42949778  0.90160927  0.90072863     0.16200
C217        C  0.39468622  0.61848705  0.92177654     0.88000
C218        C  0.39094730  0.62628179  0.94926160    -0.52200
C219        C  0.40865794  0.65231756  0.95827974     0.10900
C220        C  0.42831569  0.66795367  0.93925049     0.21900
C221        C  0.39278618  0.65793951  0.90951786    -0.52900
C222        C  0.41048474  0.68370841  0.91880771     0.11000
C223        C  0.42397041  0.60614068  0.91890069    -0.52500
C224        C  0.44150728  0.63233971  0.92814170     0.11600
H225        H  0.37523181  0.61353026  0.96028526     0.16100
H226        H  0.44261062  0.68933779  0.94675176     0.01900
H227        H  0.37820131  0.66519952  0.89554436     0.16400
H228        H  0.43020398  0.57947899  0.91036826     0.16200
N229        N  0.31118964  0.97616803  0.86854617    -0.25800
N230        N  0.31768219  0.99514524  0.88864588    -0.33600
C231        C  0.33452222  0.97391969  0.90204992     0.02600
C232        C  0.33883922  0.94012755  0.88977337     0.08600
C233        C  0.32386473  0.94217442  0.86862118    -0.04500
H234        H  0.34413616  0.98343401  0.91871686     0.09300
H235        H  0.32330009  0.92154913  0.85383772     0.10500
Cu236      Cu  0.30804060  0.05132465  0.89537615     0.44200
Cu237      Cu  0.28845604  0.99960604  0.84064762     0.42000
Cu238      Cu  0.27898227  0.10291583  0.84581025     0.43900
N239        N  0.30333703  0.10974485  0.89573026    -0.33200
N240        N  0.29262680  0.12908707  0.87742533    -0.27400
C241        C  0.29408518  0.16673873  0.88242588    -0.03500
C242        C  0.30659991  0.17105052  0.90483730     0.08700
C243        C  0.31217449  0.13438384  0.91277175     0.02500
H244        H  0.28753000  0.18927044  0.87021590     0.10200
H245        H  0.32264556  0.12620461  0.92928718     0.09200
N246        N  0.26622663  0.07025467  0.81642157    -0.34600
N247        N  0.26881905  0.03262132  0.81479468    -0.26800
C248        C  0.25728786  0.02055307  0.79392084    -0.02000
C249        C  0.24723278  0.05220815  0.78183137     0.06600
C250        C  0.25330014  0.08318314  0.79654081     0.04700
H251        H  0.25643661  0.99101186  0.78797299     0.09800
H252        H  0.24824395  0.11287888  0.79331930     0.08600
N253        N  0.65474692  0.97787453  0.87666771    -0.25800
N254        N  0.64754814  0.99662197  0.89665760    -0.33600
C255        C  0.62981506  0.97554496  0.90918556     0.02600
C256        C  0.62567862  0.94210438  0.89644165     0.08600
C257        C  0.64167653  0.94421370  0.87593871    -0.04500
H258        H  0.61964114  0.98486127  0.92561371     0.09300
H259        H  0.64279337  0.92380405  0.86106258     0.10500
Cu260      Cu  0.65798461  0.05228817  0.90440060     0.44200
Cu261      Cu  0.67917735  0.00103255  0.84989887     0.42000
Cu262      Cu  0.69067778  0.10349052  0.85636843     0.43900
N263        N  0.66410243  0.11051505  0.90534510    -0.33200
N264        N  0.67611396  0.12964289  0.88763023    -0.27400
C265        C  0.67495427  0.16730898  0.89266996    -0.03500
C266        C  0.66127913  0.17189902  0.91447440     0.08700
C267        C  0.65473818  0.13534993  0.92203280     0.02500
H268        H  0.68235411  0.18970210  0.88076609     0.10200
H269        H  0.64308382  0.12743230  0.93792518     0.09200
N270        N  0.70362383  0.07113046  0.82692710    -0.34600
N271        N  0.70029700  0.03367735  0.82484751    -0.26800
C272        C  0.71192335  0.02168260  0.80399871    -0.02000
C273        C  0.72279854  0.05322259  0.79238937     0.06600
C274        C  0.71712089  0.08404582  0.80736241     0.04700
H275        H  0.71213706  0.99231453  0.79766218     0.09800
H276        H  0.72268826  0.11363087  0.80446827     0.08600
C277        C  0.56971417  0.61949659  0.92576997     0.88000
C278        C  0.57211897  0.65893302  0.91354819    -0.52200
C279        C  0.55383524  0.68459889  0.92198513     0.10900
C280        C  0.53497511  0.66872985  0.94161202     0.21900
C281        C  0.57192948  0.62740952  0.95337059    -0.52900
C282        C  0.55365185  0.65331558  0.96153410     0.11000
C283        C  0.54068425  0.60688544  0.92158361    -0.52500
C284        C  0.52255499  0.63294627  0.92996657     0.11600
H285        H  0.58742631  0.66626877  0.90025725     0.16100
H286        H  0.52019889  0.69000137  0.94842908     0.01900
H287        H  0.58707636  0.61481540  0.96511617     0.16400
H288        H  0.53503743  0.58012254  0.91283698     0.16200
C289        C  0.56928845  0.86512637  0.91848842     0.88000
C290        C  0.57130462  0.86113250  0.94643871    -0.52200
C291        C  0.55303106  0.83638467  0.95592606     0.10900
C292        C  0.53455801  0.81812747  0.93686101     0.21900
C293        C  0.57190221  0.82414248  0.90857576    -0.52900
C294        C  0.55360574  0.79966398  0.91834944     0.11000
C295        C  0.54027151  0.87694313  0.91342678    -0.52500
C296        C  0.52215894  0.85205693  0.92315345     0.11600
H297        H  0.58631403  0.87542957  0.95752175     0.16100
H298        H  0.51977629  0.79782693  0.94478141     0.01900
H299        H  0.58736437  0.81504680  0.89589470     0.16400
H300        H  0.53462098  0.90237048  0.90319422     0.16200
N301        N  0.65755057  0.50883617  0.88581425    -0.25800
N302        N  0.64942196  0.48823699  0.90471498    -0.33600
C303        C  0.63065499  0.50774432  0.91703310     0.02600
C304        C  0.62682485  0.54214213  0.90529316     0.08600
C305        C  0.64407929  0.54219470  0.88560054    -0.04500
H306        H  0.61969219  0.49680412  0.93259988     0.09300
H307        H  0.64587943  0.56395224  0.87159440     0.10500
Cu308      Cu  0.66029463  0.43230644  0.91088116     0.44200
Cu309      Cu  0.68403073  0.48838331  0.85974548     0.42000
Cu310      Cu  0.69601937  0.38518107  0.86298405     0.43900
N311        N  0.66593379  0.37402616  0.90980831    -0.33200
N312        N  0.67888848  0.35624014  0.89207721    -0.27400
C313        C  0.67708269  0.31819546  0.89565823    -0.03500
C314        C  0.66206052  0.31204060  0.91655166     0.08700
C315        C  0.65535964  0.34800413  0.92505110     0.02500
H316        H  0.68520061  0.29669720  0.88346742     0.10200
H317        H  0.64291914  0.35480410  0.94065440     0.09200
N318        N  0.71092379  0.42068807  0.83588946    -0.34600
N319        N  0.70732476  0.45821692  0.83499202    -0.26800
C320        C  0.71976317  0.47215665  0.81505469    -0.02000
C321        C  0.73143920  0.44183868  0.80278232     0.06600
C322        C  0.72543765  0.40970600  0.81645207     0.04700
H323        H  0.71960321  0.50192567  0.80954608     0.09800
H324        H  0.73103907  0.38042197  0.81252595     0.08600
C325        C  0.62587444  0.24104085  0.95400370     0.81700
N326        N  0.63488650  0.20761608  0.94444586    -0.76600
C327        C  0.65285675  0.20795955  0.92581713     0.84200
N328        N  0.66175033  0.24188196  0.91680329    -0.76500
C329        C  0.65305897  0.27535438  0.92661144     0.84300
N330        N  0.63505473  0.27482521  0.94518076    -0.78200
C331        C  0.56853074  0.24328308  0.00759257     0.88000
C332        C  0.57086737  0.27937571  0.02360747    -0.52200
C333        C  0.55234494  0.28067138  0.04187215     0.10900
C334        C  0.53332957  0.24631590  0.04240963     0.21900
C335        C  0.57037543  0.20959966  0.02563360    -0.52900
C336        C  0.55186100  0.21148868  0.04387604     0.11000
C337        C  0.53960127  0.24303054  0.99823662    -0.52500
C338        C  0.52123735  0.24462403  0.01665062     0.11600
H339        H  0.58632856  0.30091653  0.02136120     0.16100
H340        H  0.51835101  0.24759646  0.05742402     0.01900
H341        H  0.58552372  0.18737791  0.02466639     0.16400
H342        H  0.53418390  0.24164502  0.97899395     0.16200
C343        C  0.39351334  0.24226558  0.00284930     0.88000
C344        C  0.39067119  0.20859690  0.02079091    -0.52200
C345        C  0.40796960  0.21069280  0.04000215     0.10900
C346        C  0.42640169  0.24569908  0.03950692     0.21900
C347        C  0.38998424  0.27835887  0.01867530    -0.52900
C348        C  0.40729535  0.27986794  0.03790370     0.11000
C349        C  0.42299569  0.24228398  0.99507313    -0.52500
C350        C  0.44013675  0.24409281  0.01444750     0.11600
H351        H  0.37570957  0.18623664  0.01903154     0.16100
H352        H  0.44038072  0.24715591  0.05530432     0.01900
H353        H  0.37459455  0.29974524  0.01557855     0.16400
H354        H  0.42964684  0.24094713  0.97615570     0.16200
C355        C  0.33962495  0.23986372  0.94632449     0.81700
N356        N  0.33081871  0.27370290  0.93724737    -0.76600
C357        C  0.31390836  0.27431106  0.91783260     0.84200
N358        N  0.30595977  0.24091355  0.90744372    -0.76500
C359        C  0.31446145  0.20695752  0.91667785     0.84300
N360        N  0.33131618  0.20648340  0.93616560    -0.78200
N361        N  0.30137359  0.48590726  0.17663725    -0.25800
N362        N  0.30919191  0.50622751  0.15750231    -0.33600
C363        C  0.32781440  0.48658244  0.14508210     0.02600
C364        C  0.33188432  0.45237986  0.15699331     0.08600
C365        C  0.31491380  0.45259725  0.17690038    -0.04500
H366        H  0.33852178  0.49730607  0.12930676     0.09300
H367        H  0.31333132  0.43103693  0.19105117     0.10500
Cu368      Cu  0.29818701  0.56207225  0.15113696     0.44200
Cu369      Cu  0.27508100  0.50662009  0.20282921     0.42000
Cu370      Cu  0.26272184  0.60951153  0.19912651     0.43900
N371        N  0.29295775  0.62044657  0.15234829    -0.33200
N372        N  0.28009982  0.63828142  0.17011949    -0.27400
C373        C  0.28223477  0.67631875  0.16671471    -0.03500
C374        C  0.29737625  0.68243822  0.14590016     0.08700
C375        C  0.30380781  0.64645472  0.13725091     0.02500
H376        H  0.27426021  0.69781758  0.17897993     0.10200
H377        H  0.31624356  0.63961784  0.12165104     0.09200
N378        N  0.24782338  0.57430323  0.22635180    -0.34600
N379        N  0.25156857  0.53681980  0.22743930    -0.26800
C380        C  0.23911539  0.52303317  0.24741655    -0.02000
C381        C  0.22729301  0.55341842  0.25951896     0.06600
C382        C  0.23322108  0.58542305  0.24570301     0.04700
H383        H  0.23937624  0.49333599  0.25307994     0.09800
H384        H  0.22751939  0.61471632  0.24947819     0.08600
C385        C  0.38883492  0.37485710  0.13623796     0.88000
C386        C  0.38673449  0.36726286  0.10858813    -0.52200
C387        C  0.40498794  0.34134571  0.10038111     0.10900
C388        C  0.42353265  0.32561941  0.12030490     0.21900
C389        C  0.38627857  0.33528286  0.14826338    -0.52900
C390        C  0.40454683  0.30962275  0.13978161     0.11000
C391        C  0.41788460  0.38725698  0.14059706    -0.52500
C392        C  0.43599065  0.36119667  0.13216457     0.11600
H393        H  0.37166957  0.38005456  0.09684095     0.16100
H394        H  0.43828906  0.30435039  0.11345024     0.01900
H395        H  0.37091427  0.32788271  0.16148453     0.16400
H396        H  0.42355998  0.41388484  0.14949461     0.16200
C397        C  0.38916315  0.12908774  0.14295312     0.88000
C398        C  0.38652909  0.17003734  0.15291286    -0.52200
C399        C  0.40495101  0.19450139  0.14333114     0.10900
C400        C  0.42415706  0.17604597  0.12495055     0.21900
C401        C  0.38742458  0.13322306  0.11499045    -0.52900
C402        C  0.40583656  0.15795501  0.10569784     0.11000
C403        C  0.41811430  0.11713742  0.14822439    -0.52500
C404        C  0.43637045  0.14199662  0.13868794     0.11600
H405        H  0.37093406  0.17914439  0.16545449     0.16100
H406        H  0.43904699  0.19633211  0.11718914     0.01900
H407        H  0.37247921  0.11906500  0.10376278     0.16400
H408        H  0.42361863  0.09162498  0.15843879     0.16200
N409        N  0.30340930  0.01686146  0.18489419    -0.25800
N410        N  0.31043558  0.99807920  0.16486824    -0.33600
C411        C  0.32808798  0.01909772  0.15220672     0.02600
C412        C  0.33236433  0.05255115  0.16489562     0.08600
C413        C  0.31652526  0.05049703  0.18551377    -0.04500
H414        H  0.33817681  0.00968326  0.13575381     0.09300
H415        H  0.31558909  0.07089527  0.20040859     0.10500
Cu416      Cu  0.30009405  0.94231797  0.15737751     0.44200
Cu417      Cu  0.27919536  0.99365178  0.21183839     0.42000
Cu418      Cu  0.26750990  0.89116565  0.20559298     0.43900
N419        N  0.29454478  0.88398281  0.15681129    -0.33200
N420        N  0.28255566  0.86487537  0.17455028    -0.27400
C421        C  0.28411825  0.82716594  0.16973067    -0.03500
C422        C  0.29803412  0.82254842  0.14805609     0.08700
C423        C  0.30430297  0.85910749  0.14034236     0.02500
H424        H  0.27679562  0.80478999  0.18168891     0.10200
H425        H  0.31598987  0.86703595  0.12447502     0.09200
N426        N  0.25468596  0.92371799  0.23502154    -0.34600
N427        N  0.25812215  0.96116224  0.23703572    -0.26800
C428        C  0.24671117  0.97326882  0.25796246    -0.02000
C429        C  0.23587364  0.94181554  0.26970414     0.06600
C430        C  0.24133860  0.91092601  0.25471142     0.04700
H431        H  0.24665223  0.00264741  0.26427967     0.09800
H432        H  0.23576940  0.88136408  0.25770457     0.08600
N433        N  0.64925331  0.48711588  0.18478942    -0.25800
N434        N  0.64164779  0.50764129  0.16567067    -0.33600
C435        C  0.62331805  0.48803128  0.15287906     0.02600
C436        C  0.61919370  0.45362835  0.16452021     0.08600
C437        C  0.63584911  0.45367832  0.18466102    -0.04500
H438        H  0.61291870  0.49883003  0.13695000     0.09300
H439        H  0.63738410  0.43183539  0.19863793     0.10500
Cu440      Cu  0.65273599  0.56348656  0.15954246     0.44200
Cu441      Cu  0.67527291  0.50764010  0.21131004     0.42000
Cu442      Cu  0.68715904  0.61077406  0.20804376     0.43900
N443        N  0.65836385  0.62175673  0.16055207    -0.33200
N444        N  0.67079672  0.63959507  0.17856880    -0.27400
C445        C  0.66916111  0.67761598  0.17487526    -0.03500
C446        C  0.65480313  0.68371096  0.15359256     0.08700
C447        C  0.64830529  0.64773392  0.14498400     0.02500
H448        H  0.67697385  0.69914108  0.18720959     0.10200
H449        H  0.63635188  0.64090136  0.12906855     0.09200
N450        N  0.70199789  0.57546235  0.23523679    -0.34600
N451        N  0.69849473  0.53791658  0.23615157    -0.26800
C452        C  0.71103101  0.52408972  0.25607759    -0.02000
C453        C  0.72264702  0.55450656  0.26832157     0.06600
C454        C  0.71651732  0.58657116  0.25464168     0.04700
H455        H  0.71100506  0.49431868  0.26159034     0.09800
H456        H  0.72208235  0.61588702  0.25851214     0.08600
C457        C  0.56381660  0.37562852  0.14114214     0.88000
C458        C  0.56568843  0.33605467  0.15326388    -0.52200
C459        C  0.54811369  0.31029403  0.14374594     0.10900
C460        C  0.53042682  0.32618486  0.12323780     0.21900
C461        C  0.56779999  0.36809555  0.11365563    -0.52900
C462        C  0.55022434  0.34206797  0.10441072     0.11000
C463        C  0.53448204  0.38782047  0.14385374    -0.52500
C464        C  0.51706971  0.36164295  0.13439331     0.11600
H465        H  0.58016067  0.32872677  0.16732398     0.16100
H466        H  0.51623492  0.30482099  0.11555079     0.01900
H467        H  0.58358897  0.38100310  0.10279406     0.16400
H468        H  0.52812445  0.41437532  0.15244461     0.16200
C469        C  0.56423446  0.13000261  0.14764086     0.88000
C470        C  0.56776011  0.13416377  0.11982506    -0.52200
C471        C  0.54984283  0.15866318  0.10953439     0.10900
C472        C  0.53019195  0.17652333  0.12774640     0.21900
C473        C  0.56596798  0.17096781  0.15772080    -0.52900
C474        C  0.54805151  0.19519641  0.14714861     0.11000
C475        C  0.53506443  0.11768555  0.15132859    -0.52500
C476        C  0.51731071  0.14232933  0.14080578     0.11600
H477        H  0.58350274  0.12020894  0.10944012     0.16100
H478        H  0.51571455  0.19663436  0.11918184     0.01900
H479        H  0.58065900  0.18026306  0.17109770     0.16400
H480        H  0.52906132  0.09212359  0.16124925     0.16200
N481        N  0.64850376  0.01825617  0.19253011    -0.25800
N482        N  0.64190317  0.99935666  0.17242744    -0.33600
C483        C  0.62464833  0.02038091  0.15933029     0.02600
C484        C  0.62016611  0.05395578  0.17181099     0.08600
C485        C  0.63548840  0.05198901  0.19276007    -0.04500
H486        H  0.61491624  0.01087308  0.14271812     0.09300
H487        H  0.63610064  0.07249301  0.20760956     0.10500
Cu488      Cu  0.65208162  0.94344835  0.16531501     0.44200
Cu489      Cu  0.67189150  0.99501674  0.22007322     0.42000
Cu490      Cu  0.68245453  0.89208698  0.21444677     0.43900
N491        N  0.65739493  0.88510413  0.16481015    -0.33200
N492        N  0.66856693  0.86587074  0.18293267    -0.27400
C493        C  0.66721061  0.82819937  0.17795160    -0.03500
C494        C  0.65428283  0.82375010  0.15575030     0.08700
C495        C  0.64837187  0.86036360  0.14791289     0.02500
H496        H  0.67403906  0.80573621  0.19008715     0.10200
H497        H  0.63745331  0.86842238  0.13161689     0.09200
N498        N  0.69501454  0.92465731  0.24395206    -0.34600
N499        N  0.69202670  0.96221060  0.24574684    -0.26800
C500        C  0.70335620  0.97427196  0.26671868    -0.02000
C501        C  0.71367983  0.94268835  0.27870480     0.06600
C502        C  0.70799176  0.91176476  0.26382009     0.04700
H503        H  0.70380679  0.00374207  0.27284811     0.09800
H504        H  0.71326513  0.88212521  0.26695518     0.08600
C505        C  0.62035461  0.75490062  0.11493004     0.81700
N506        N  0.62900483  0.78826856  0.12485074    -0.76600
C507        C  0.64615029  0.78778806  0.14412213     0.84200
N508        N  0.65458956  0.75381263  0.15339392    -0.76500
C509        C  0.64626403  0.72040955  0.14324601     0.84300
N510        N  0.62907812  0.72105003  0.12404002    -0.78200
C511        C  0.56591191  0.75263983  0.05887792     0.88000
C512        C  0.56920908  0.71647534  0.04307423    -0.52200
C513        C  0.55176196  0.71504023  0.02394708     0.10900
C514        C  0.53276458  0.74933207  0.02241844     0.21900
C515        C  0.56874734  0.78623530  0.04088074    -0.52900
C516        C  0.55130889  0.78419943  0.02177594     0.11000
C517        C  0.53648692  0.75285077  0.06682772    -0.52500
C518        C  0.51921384  0.75110545  0.04755154     0.11600
H519        H  0.58455347  0.69499634  0.04610015     0.16100
H520        H  0.51867093  0.74792835  0.00670416     0.01900
H521        H  0.58380456  0.80848994  0.04251997     0.16400
H522        H  0.52996880  0.75426778  0.08578077     0.16200
C523        C  0.39090030  0.75158480  0.05493433     0.88000
C524        C  0.38882667  0.78515438  0.03683016    -0.52200
C525        C  0.40725083  0.78330748  0.01850990     0.10900
C526        C  0.42592211  0.74862994  0.01996919     0.21900
C527        C  0.38861121  0.71538963  0.03901541    -0.52900
C528        C  0.40703592  0.71413204  0.02067070     0.11000
C529        C  0.41986798  0.75211354  0.06416273    -0.52500
C530        C  0.43813637  0.75055710  0.04567449     0.11600
H531        H  0.37359450  0.80725537  0.03781324     0.16100
H532        H  0.44082707  0.74737730  0.00489192     0.01900
H533        H  0.37323771  0.69375005  0.04137732     0.16400
H534        H  0.42537999  0.75362018  0.08337931     0.16200
C535        C  0.33387762  0.75353036  0.10877339     0.81700
N536        N  0.32478993  0.78692197  0.11831421    -0.76600
C537        C  0.30674932  0.78651128  0.13688054     0.84200
N538        N  0.29785774  0.75256271  0.14584174    -0.76500
C539        C  0.30660499  0.71912363  0.13603160     0.84300
N540        N  0.32468797  0.71970586  0.11752916    -0.78200
N541        N  0.14924429  0.00841752  0.37739452    -0.25800
N542        N  0.14153308  0.98782236  0.39644782    -0.33600
C543        C  0.12321428  0.00746251  0.40923671     0.02600
C544        C  0.11921142  0.04194796  0.39765686     0.08600
C545        C  0.13592505  0.04192021  0.37756223    -0.04500
H546        H  0.11271817  0.99661915  0.42510166     0.09300
H547        H  0.13752490  0.06380534  0.36361398     0.10500
Cu548      Cu  0.15242585  0.93184903  0.40244589     0.44200
Cu549      Cu  0.17514418  0.98787805  0.35079567     0.42000
Cu550      Cu  0.18662443  0.88464707  0.35373972     0.43900
N551        N  0.15803846  0.87355966  0.40136646    -0.33200
N552        N  0.17041353  0.85576020  0.38329773    -0.27400
C553        C  0.16887514  0.81773147  0.38701972    -0.03500
C554        C  0.15464336  0.81158157  0.40837380     0.08700
C555        C  0.14811461  0.84754827  0.41699113     0.02500
H556        H  0.17669345  0.79622699  0.37467263     0.10200
H557        H  0.13626739  0.85434789  0.43297749     0.09200
N558        N  0.20121479  0.91996445  0.32639896    -0.34600
N559        N  0.19786598  0.95754675  0.32560865    -0.26800
C560        C  0.21015016  0.97137782  0.30555069    -0.02000
C561        C  0.22144384  0.94093071  0.29308626     0.06600
C562        C  0.21538514  0.90884116  0.30677731     0.04700
H563        H  0.21018916  0.00118172  0.30011997     0.09800
H564        H  0.22078920  0.87950137  0.30278142     0.08600
C565        C  0.06427983  0.36571506  0.41481099     0.88000
C566        C  0.06783594  0.36141352  0.44260958    -0.52200
C567        C  0.04995402  0.33682900  0.45285857     0.10900
C568        C  0.03030410  0.31901695  0.43462869     0.21900
C569        C  0.06604523  0.32480235  0.40463660    -0.52900
C570        C  0.04816042  0.30047883  0.41516958     0.11000
C571        C  0.03509441  0.37799383  0.41117450    -0.52500
C572        C  0.01737653  0.35325581  0.42165725     0.11600
H573        H  0.08356325  0.37536164  0.45301560     0.16100
H574        H  0.01585630  0.29883695  0.44316491     0.01900
H575        H  0.08072757  0.31561234  0.39122389     0.16400
H576        H  0.02905613  0.40360368  0.40132330     0.16200
C577        C  0.06386791  0.12002314  0.42095155     0.88000
C578        C  0.06571713  0.15959448  0.40882089    -0.52200
C579        C  0.04817323  0.18536889  0.41837773     0.10900
C580        C  0.03053341  0.16948080  0.43892523     0.21900
C581        C  0.06792410  0.12755332  0.44842420    -0.52900
C582        C  0.05037703  0.15358067  0.45770507     0.11000
C583        C  0.03452759  0.10783742  0.41830744    -0.52500
C584        C  0.01714318  0.13401955  0.42780546     0.11600
H585        H  0.08016384  0.16691521  0.39473944     0.16100
H586        H  0.01636626  0.19084618  0.44664683     0.01900
H587        H  0.08372703  0.11462219  0.45925542     0.16400
H588        H  0.02814612  0.08127454  0.40974284     0.16200
N589        N  0.14841294  0.47724559  0.36959034    -0.25800
N590        N  0.14244226  0.49592010  0.38994470    -0.33600
C591        C  0.12534397  0.47492826  0.40324449     0.02600
C592        C  0.12032063  0.44162489  0.39062725     0.08600
C593        C  0.13515331  0.44371918  0.36939705    -0.04500
H594        H  0.11604125  0.48432614  0.42008615     0.09300
H595        H  0.13523507  0.42348340  0.35438643     0.10500
Cu596      Cu  0.15308448  0.55167744  0.39711168     0.44200
Cu597      Cu  0.17121336  0.50051269  0.34167291     0.42000
Cu598      Cu  0.18191831  0.60330205  0.34724449     0.43900
N599        N  0.15815039  0.61011542  0.39745675    -0.33200
N600        N  0.16872925  0.62941891  0.37906370    -0.27400
C601        C  0.16722265  0.66709816  0.38399551    -0.03500
C602        C  0.15479456  0.67149607  0.40644202     0.08700
C603        C  0.14934937  0.63483007  0.41447676     0.02500
H604        H  0.17354223  0.68959138  0.37165326     0.10200
H605        H  0.13883961  0.62670894  0.43098612     0.09200
N606        N  0.19412548  0.57076926  0.31758134    -0.34600
N607        N  0.19109267  0.53322341  0.31581308    -0.26800
C608        C  0.20237903  0.52108474  0.29483979    -0.02000
C609        C  0.21273228  0.55261538  0.28282387     0.06600
C610        C  0.20708874  0.58358853  0.29768624     0.04700
H611        H  0.20286168  0.49158889  0.28877354     0.09800
H612        H  0.21247326  0.61319198  0.29456002     0.08600
N613        N  0.80365597  0.47834195  0.37705113    -0.25800
N614        N  0.81017932  0.49696240  0.39728253    -0.33600
C615        C  0.82764563  0.47594045  0.41015759     0.02600
C616        C  0.83231950  0.44266599  0.39739516     0.08600
C617        C  0.81691367  0.44482215  0.37651302    -0.04500
H618        H  0.83739311  0.48528338  0.42679761     0.09300
H619        H  0.81641092  0.42462022  0.36149425     0.10500
Cu620      Cu  0.79964073  0.55265782  0.40479279     0.44200
Cu621      Cu  0.78003744  0.50161475  0.34971113     0.42000
Cu622      Cu  0.76871473  0.60411271  0.35584380     0.43900
N623        N  0.79445047  0.61108217  0.40523827    -0.33200
N624        N  0.78306020  0.63028489  0.38721184    -0.27400
C625        C  0.78472518  0.66798687  0.39201909    -0.03500
C626        C  0.79810330  0.67251494  0.41398463     0.08700
C627        C  0.80394324  0.63589756  0.42188218     0.02500
H628        H  0.77787521  0.69040903  0.37986419     0.10200
H629        H  0.81517845  0.62788102  0.43800407     0.09200
N630        N  0.75614047  0.57170813  0.32625447    -0.34600
N631        N  0.75942828  0.53423227  0.32428928    -0.26800
C632        C  0.74800760  0.52214932  0.30336507    -0.02000
C633        C  0.73730590  0.55364954  0.29157692     0.06600
C634        C  0.74287948  0.58454917  0.30652893     0.04700
H635        H  0.74774139  0.49272639  0.29713882     0.09800
H636        H  0.73732505  0.61411948  0.30354353     0.08600
C637        C  0.88923282  0.36645916  0.41954557     0.88000
C638        C  0.88661586  0.32552898  0.40955720    -0.52200
C639        C  0.90503027  0.30105599  0.41913508     0.10900
C640        C  0.92421303  0.31948423  0.43754705     0.21900
C641        C  0.88746361  0.36228922  0.44750231    -0.52900
C642        C  0.90587224  0.33755270  0.45679397     0.11000
C643        C  0.91818618  0.37842681  0.41430472    -0.52500
C644        C  0.93643553  0.35355626  0.42384182     0.11600
H645        H  0.87104572  0.31644313  0.39698525     0.16100
H646        H  0.93909758  0.29918783  0.44530840     0.01900
H647        H  0.87250852  0.37643778  0.45872685     0.16400
H648        H  0.92369648  0.40394952  0.40410554     0.16200
C649        C  0.88891916  0.12068294  0.42586885     0.88000
C650        C  0.88671733  0.12822356  0.45352190    -0.52200
C651        C  0.90494620  0.15412225  0.46180403     0.10900
C652        C  0.92356219  0.16987997  0.44195135     0.21900
C653        C  0.88641018  0.16028606  0.41387091    -0.52900
C654        C  0.90464897  0.18592277  0.42243543     0.11000
C655        C  0.91798622  0.10829032  0.42158966    -0.52500
C656        C  0.93606109  0.13433097  0.43010004     0.11600
H657        H  0.87161415  0.11540888  0.46521276     0.16100
H658        H  0.93829574  0.19113235  0.44886767     0.01900
H659        H  0.87108997  0.16772417  0.40061618     0.16400
H660        H  0.92369455  0.08169335  0.41267519     0.16200
N661        N  0.80176540  0.00930849  0.38521141    -0.25800
N662        N  0.80972244  0.98892231  0.40426798    -0.33600
C663        C  0.82830094  0.00863573  0.41669690     0.02600
C664        C  0.83219949  0.04295547  0.40487430     0.08600
C665        C  0.81517112  0.04273296  0.38500635    -0.04500
H666        H  0.83908398  0.99790180  0.43242970     0.09300
H667        H  0.81345090  0.06438310  0.37092550     0.10500
Cu668      Cu  0.79888052  0.93297989  0.41052864     0.44200
Cu669      Cu  0.77546766  0.98851518  0.35905584     0.42000
Cu670      Cu  0.76321418  0.88552469  0.36261540     0.43900
N671        N  0.79357812  0.87461244  0.40935425    -0.33200
N672        N  0.78064308  0.85676870  0.39163285    -0.27400
C673        C  0.78266519  0.81873298  0.39512727    -0.03500
C674        C  0.79780227  0.81262500  0.41595154     0.08700
C675        C  0.80435672  0.84861676  0.42450642     0.02500
H676        H  0.77457543  0.79721683  0.38294075     0.10200
H677        H  0.81678961  0.85546204  0.44010343     0.09200
N678        N  0.74840397  0.92080024  0.33535350    -0.34600
N679        N  0.75212347  0.95829556  0.33433295    -0.26800
C680        C  0.73980784  0.97213063  0.31430053    -0.02000
C681        C  0.72809902  0.94177770  0.30208342     0.06600
C682        C  0.73394632  0.90972843  0.31589551     0.04700
H683        H  0.74009059  0.00184795  0.30867980     0.09800
H684        H  0.72829479  0.88044038  0.31204173     0.08600
C685        C  0.12069340  0.74017668  0.44729609     0.81700
N686        N  0.12950725  0.70685503  0.43741961    -0.76600
C687        C  0.14656712  0.70742967  0.41808074     0.84200
N688        N  0.15476516  0.74146060  0.40870325    -0.76500
C689        C  0.14631090  0.77482721  0.41881867     0.84300
N690        N  0.12920149  0.77408487  0.43808706    -0.78200
C691        C  0.06603908  0.74211567  0.50323675     0.88000
C692        C  0.06926445  0.77824507  0.51908887    -0.52200
C693        C  0.05175629  0.77963052  0.53817302     0.10900
C694        C  0.03276673  0.74531821  0.53961563     0.21900
C695        C  0.06882540  0.70848244  0.52121624    -0.52900
C696        C  0.05132792  0.71046221  0.54028259     0.11000
C697        C  0.03663308  0.74190364  0.49520955    -0.52500
C698        C  0.01929125  0.74359575  0.51444197     0.11600
H699        H  0.08461148  0.79974003  0.51612630     0.16100
H700        H  0.01862364  0.74667956  0.55529418     0.01900
H701        H  0.08391399  0.68626280  0.51960909     0.16400
H702        H  0.03017820  0.74054226  0.47623738     0.16200
C703        C  0.83378069  0.74145841  0.45348307     0.81700
N704        N  0.82465482  0.70807563  0.44394483    -0.76600
C705        C  0.80677673  0.70852364  0.42524209     0.84200
N706        N  0.79807517  0.74249464  0.41615681    -0.76500
C707        C  0.80684289  0.77592267  0.42596232     0.84300
N708        N  0.82477753  0.77530470  0.44458781    -0.78200
C709        C  0.89091671  0.74330877  0.50727097     0.88000
C710        C  0.88891966  0.70969208  0.52534953    -0.52200
C711        C  0.90742500  0.71147600  0.54360524     0.10900
C712        C  0.92610197  0.74614254  0.54210916     0.21900
C713        C  0.88871114  0.77945852  0.52324641    -0.52900
C714        C  0.90721976  0.78065249  0.54152487     0.11000
C715        C  0.91984979  0.74279034  0.49793438    -0.52500
C716        C  0.93820666  0.74427954  0.51635492     0.11600
H717        H  0.87366473  0.68761962  0.52441049     0.16100
H718        H  0.94107329  0.74734229  0.55713307     0.01900
H719        H  0.87332266  0.80110031  0.52097979     0.16400
H720        H  0.92527522  0.74132811  0.47869382     0.16200
C721        C  0.85386121  0.74112544  0.47216843    -0.11800
C722        C  0.87079442  0.74176525  0.48782157    -0.13300
C723        C  0.96663322  0.74393482  0.51238131    -0.11800
C724        C  0.99068109  0.74371708  0.51179103    -0.13300
C725        C  0.10138296  0.73972400  0.46666566    -0.11800
C726        C  0.08514564  0.74039004  0.48293559    -0.13300
C727        C  0.85206723  0.07093010  0.41082270    -0.11800
C728        C  0.86902067  0.09333333  0.41701257    -0.13300
C729        C  0.90429114  0.26035632  0.41539843    -0.11800
C730        C  0.90416709  0.22595311  0.41641111    -0.13300
C731        C  0.86915273  0.39263235  0.40975266    -0.11800
C732        C  0.85209889  0.41461236  0.40326587    -0.13300
C733        C  0.98857205  0.12953462  0.42738122    -0.11800
C734        C  0.96453286  0.12963200  0.42806430    -0.13300
C735        C  0.98887520  0.35816351  0.42076766    -0.11800
C736        C  0.96484887  0.35823706  0.42141749    -0.13300
C737        C  0.08385603  0.39173367  0.40404931    -0.11800
C738        C  0.10068838  0.41362366  0.39698351    -0.13300
C739        C  0.04843360  0.22539175  0.41233542    -0.11800
C740        C  0.04843439  0.25979352  0.41134168    -0.13300
C741        C  0.09966442  0.07006399  0.40418385    -0.11800
C742        C  0.08308515  0.09255127  0.41105774    -0.13300
C743        C  0.37087918  0.75318182  0.07445143    -0.11800
C744        C  0.35398353  0.75383329  0.09012821    -0.13300
C745        C  0.49060824  0.75102987  0.05013470    -0.11800
C746        C  0.46656696  0.75086075  0.04955365    -0.13300
C747        C  0.60109064  0.75522599  0.09554249    -0.11800
C748        C  0.58492563  0.75444862  0.07922719    -0.13300
C749        C  0.60064881  0.08218000  0.16555857    -0.11800
C750        C  0.58384153  0.10408925  0.15846413    -0.13300
C751        C  0.54834367  0.27029080  0.14982290    -0.11800
C752        C  0.54831890  0.23589752  0.15087476    -0.13300
C753        C  0.58306232  0.40308044  0.15102534    -0.11800
C754        C  0.59964538  0.42553214  0.15794641    -0.13300
C755        C  0.48881253  0.13739064  0.14174960    -0.11800
C756        C  0.46478450  0.13731095  0.14112171    -0.13300
C757        C  0.35206407  0.08080129  0.15916106    -0.11800
C758        C  0.36908079  0.10289189  0.15273457    -0.13300
C759        C  0.46445657  0.36594418  0.13423518    -0.11800
C760        C  0.48849692  0.36610075  0.13489831    -0.13300
C761        C  0.40405705  0.26961756  0.14588242    -0.11800
C762        C  0.40417914  0.23521973  0.14698802    -0.13300
C763        C  0.36889588  0.40221209  0.14499916    -0.11800
C764        C  0.35187026  0.42455263  0.15110849    -0.13300
C765        C  0.40607714  0.17015002  0.08055618    -0.11800
C766        C  0.40669919  0.18577625  0.06092734    -0.13300
C767        C  0.40557845  0.30776297  0.05723316    -0.11800
C768        C  0.40492485  0.32601856  0.07592752    -0.13300
C769        C  0.37464995  0.24039070  0.98237585    -0.11800
C770        C  0.35864997  0.23957989  0.96591944    -0.13300
C771        C  0.49281314  0.24445478  0.01266892    -0.11800
C772        C  0.46876802  0.24428968  0.01201242    -0.13300
C773        C  0.55186509  0.18652486  0.06480756    -0.11800
C774        C  0.55122065  0.17088871  0.08443120    -0.13300
C775        C  0.55200096  0.32675969  0.07999992    -0.11800
C776        C  0.55267642  0.30853341  0.06129022    -0.13300
C777        C  0.60567488  0.24083593  0.97257905    -0.11800
C778        C  0.58867158  0.24160587  0.98816496    -0.13300
C779        C  0.55300851  0.82442596  0.98110824    -0.11800
C780        C  0.55252348  0.80899152  0.00079740    -0.13300
C781        C  0.55379066  0.66883489  0.98593565    -0.11800
C782        C  0.55327337  0.68712881  0.00461666    -0.13300
C783        C  0.58968442  0.59217336  0.91708013    -0.11800
C784        C  0.60677223  0.56988972  0.91106756    -0.13300
C785        C  0.55432037  0.72456293  0.91579243    -0.11800
C786        C  0.55428624  0.75895526  0.91466244    -0.13300
C787        C  0.58920662  0.89139707  0.90853587    -0.11800
C788        C  0.60609813  0.91366525  0.90210039    -0.13300
C789        C  0.40715563  0.66781770  0.98265286    -0.11800
C790        C  0.40665370  0.68617588  0.00131228    -0.13300
C791        C  0.49409980  0.62801385  0.92803392    -0.11800
C792        C  0.47006090  0.62778712  0.92748045    -0.13300
C793        C  0.40749058  0.82358396  0.97783109    -0.11800
C794        C  0.40701896  0.80812789  0.99751434    -0.13300
C795        C  0.46970866  0.85643029  0.92031236    -0.11800
C796        C  0.49373053  0.85657359  0.92086773    -0.13300
C797        C  0.37475711  0.88977001  0.90359440    -0.11800
C798        C  0.35808749  0.91172327  0.89631584    -0.13300
C799        C  0.41021669  0.72364285  0.91260625    -0.11800
C800        C  0.41018811  0.75801735  0.91147872    -0.13300
C801        C  0.37529115  0.59110942  0.91210043    -0.11800
C802        C  0.35854244  0.56891548  0.90520436    -0.13300
C803        C  0.90552086  0.18763526  0.50497206    -0.11800
C804        C  0.90483070  0.16940134  0.48626991    -0.13300
C805        C  0.90611350  0.32535556  0.48193074    -0.11800
C806        C  0.90676077  0.30967661  0.50153875    -0.13300
C807        C  0.85887439  0.25541322  0.59646028    -0.11800
C808        C  0.87488245  0.25469137  0.58001747    -0.13300
C809        C  0.99294162  0.25066799  0.54954647    -0.11800
C810        C  0.96889818  0.25080242  0.55018725    -0.13300
C811        C  0.05198903  0.30889362  0.49755440    -0.11800
C812        C  0.05133861  0.32455344  0.47794377    -0.13300
C813        C  0.05287684  0.18692850  0.50087020    -0.11800
C814        C  0.05218812  0.16880094  0.48212767    -0.13300
C815        C  0.10585629  0.25428341  0.58961394    -0.11800
C816        C  0.08878639  0.25357435  0.57409652    -0.13300
C817        C  0.90769932  0.67118907  0.58429096    -0.11800
C818        C  0.90722995  0.68665934  0.56460887    -0.13300
C819        C  0.87486548  0.60469377  0.65839761    -0.11800
C820        C  0.85813680  0.58276736  0.66561542    -0.13300
C821        C  0.90689413  0.80850853  0.56094874    -0.11800
C822        C  0.90740065  0.82680191  0.57963694    -0.13300
C823        C  0.91021645  0.73655545  0.65075158    -0.11800
C824        C  0.91024398  0.77093693  0.64966596    -0.13300
C825        C  0.87531050  0.90350887  0.65010877    -0.11800
C826        C  0.85852327  0.92570752  0.65694063    -0.13300
C827        C  0.05320990  0.80751356  0.55753520    -0.11800
C828        C  0.05373214  0.82584231  0.57620812    -0.13300
C829        C  0.99419861  0.86662207  0.63432710    -0.11800
C830        C  0.97015744  0.86683399  0.63492643    -0.13300
C831        C  0.05307935  0.67029137  0.58098811    -0.11800
C832        C  0.05255455  0.68569991  0.56128572    -0.13300
C833        C  0.99387560  0.63819988  0.64129998    -0.11800
C834        C  0.96985034  0.63829459  0.64185814    -0.13300
C835        C  0.10623529  0.58106933  0.66006634    -0.11800
C836        C  0.08935555  0.60332674  0.65358206    -0.13300
C837        C  0.05450978  0.73578187  0.64744272    -0.11800
C838        C  0.05455307  0.77017334  0.64632327    -0.13300
C839        C  0.10680853  0.92499663  0.65106415    -0.11800
C840        C  0.08979090  0.90263672  0.64498735    -0.13300
loop_ 
_geom_bond_atom_site_label_1 
_geom_bond_atom_site_label_2 
_geom_bond_distance 
_geom_bond_site_symmetry_2 
_ccdc_geom_bond_type 
N1            N2   1.322   1_565  A
N1            C5   1.346       .  A
N1           Cu9   2.074   1_565  S
N2            C3   1.342   1_545  A
N2           Cu8   2.054       .  S
C3            C4   1.375       .  A
C3            H6   1.082       .  S
C4            C5   1.380       .  A
C4          C839   1.431       .  S
C5            H7   1.082       .  S
Cu8          N11   2.054       .  S
Cu9          N19   2.074       .  S
Cu10         N12   2.068       .  S
Cu10         N18   2.069       .  S
N11          N12   1.321       .  A
N11          C15   1.341       .  A
N12          C13   1.345       .  A
C13          C14   1.384       .  A
C13          H16   1.082       .  S
C14          C15   1.380       .  A
C14         C147   1.464       .  S
C15          H17   1.082       .  S
N18          N19   1.323       .  A
N18          C22   1.342       .  A
N19          C20   1.346       .  A
C20          C21   1.382       .  A
C20          H23   1.082   1_545  S
C21          C22   1.380       .  A
C21         C249   1.467       .  S
C22          H24   1.081       .  S
C25          C26   1.537       .  S
C25          C31   1.536       .  S
C25          C29   1.535       .  S
C25         C836   1.460       .  S
C26          H33   1.087       .  S
C26          C27   1.361       .  D
C27          C28   1.532       .  S
C27         C831   1.438       .  S
C28          C32   1.533       .  S
C28          C30   1.532       .  S
C28          H34   1.113       .  S
C29          H35   1.087       .  S
C29          C30   1.362       .  D
C30         C837   1.435       .  S
C31          H36   1.086       .  S
C31          C32   1.364       .  D
C32         C833   1.439   1_455  S
C37          C38   1.535       .  S
C37          C43   1.537       .  S
C37          C41   1.537       .  S
C37         C840   1.462       .  S
C38          H45   1.087       .  S
C38          C39   1.361       .  D
C39          C40   1.533       .  S
C39         C838   1.435       .  S
C40          C44   1.533       .  S
C40          C42   1.533       .  S
C40          H46   1.112       .  S
C41          H47   1.087       .  S
C41          C42   1.362       .  D
C42         C828   1.439       .  S
C43          H48   1.086       .  S
C43          C44   1.364       .  D
C44         C829   1.440   1_455  S
N49          N50   1.323       .  A
N49          C53   1.346       .  A
N49         Cu57   2.072       .  S
N50          C51   1.341       .  A
N50         Cu56   2.054       .  S
C51          C52   1.374       .  A
C51          H54   1.082       .  S
C52          C53   1.379       .  A
C52         C835   1.430       .  S
C53          H55   1.082       .  S
Cu56         N59   2.054       .  S
Cu57         N67   2.072       .  S
Cu58         N60   2.069       .  S
Cu58         N66   2.069       .  S
N59          N60   1.321       .  A
N59          C63   1.342       .  A
N60          C61   1.344       .  A
C61          C62   1.383       .  A
C61          H64   1.082       .  S
C62          C63   1.380       .  A
C62         C149   1.464       .  S
C63          H65   1.082       .  S
N66          N67   1.323       .  A
N66          C70   1.343       .  A
N67          C68   1.346       .  A
C68          C69   1.382       .  A
C68          H71   1.082       .  S
C69          C70   1.381       .  A
C69         C201   1.467       .  S
C70          H72   1.081       .  S
N73          N74   1.323   1_565  A
N73          C77   1.346       .  A
N73         Cu81   2.075   1_565  S
N74          C75   1.341   1_545  A
N74         Cu80   2.054       .  S
C75          C76   1.374       .  A
C75          H78   1.082       .  S
C76          C77   1.381       .  A
C76         C826   1.431       .  S
C77          H79   1.082       .  S
Cu80         N83   2.054       .  S
Cu81         N91   2.075       .  S
Cu82         N84   2.068       .  S
Cu82         N90   2.068       .  S
N83          N84   1.321       .  A
N83          C87   1.342       .  A
N84          C85   1.345       .  A
C85          C86   1.383       .  A
C85          H88   1.082       .  S
C86          C87   1.380       .  A
C86         C165   1.464       .  S
C87          H89   1.082       .  S
N90          N91   1.323       .  A
N90          C94   1.343       .  A
N91          C92   1.346       .  A
C92          C93   1.383       .  A
C92          H95   1.082   1_545  S
C93          C94   1.380       .  A
C93         C273   1.467       .  S
C94          H96   1.081       .  S
C97          C98   1.537       .  S
C97         C103   1.537       .  S
C97         C101   1.534       .  S
C97         C825   1.462       .  S
C98         H105   1.087       .  S
C98          C99   1.362       .  D
C99         C100   1.532       .  S
C99         C822   1.439       .  S
C100        C104   1.533       .  S
C100        C102   1.532       .  S
C100        H106   1.113       .  S
C101        H107   1.087       .  S
C101        C102   1.361       .  D
C102        C824   1.435       .  S
C103        H108   1.086       .  S
C103        C104   1.365       .  D
C104        C830   1.440       .  S
C109        C110   1.534       .  S
C109        C115   1.537       .  S
C109        C113   1.537       .  S
C109        C819   1.460       .  S
C110        H117   1.087       .  S
C110        C111   1.362       .  D
C111        C112   1.532       .  S
C111        C823   1.435       .  S
C112        C116   1.533       .  S
C112        C114   1.532       .  S
C112        H118   1.113       .  S
C113        H119   1.087       .  S
C113        C114   1.361       .  D
C114        C817   1.438       .  S
C115        H120   1.086       .  S
C115        C116   1.364       .  D
C116        C834   1.439       .  S
N121        N122   1.323       .  A
N121        C125   1.346       .  A
N121       Cu129   2.072       .  S
N122        C123   1.341       .  A
N122       Cu128   2.053       .  S
C123        C124   1.374       .  A
C123        H126   1.082       .  S
C124        C125   1.380       .  A
C124        C820   1.429       .  S
C125        H127   1.082       .  S
Cu128       N131   2.054       .  S
Cu129       N139   2.072       .  S
Cu130       N132   2.068       .  S
Cu130       N138   2.069       .  S
N131        N132   1.320       .  A
N131        C135   1.342       .  A
N132        C133   1.344       .  A
C133        C134   1.383       .  A
C133        H136   1.082       .  S
C134        C135   1.380       .  A
C134        C167   1.464       .  S
C135        H137   1.082       .  S
N138        N139   1.323       .  A
N138        C142   1.342       .  A
N139        C140   1.346       .  A
C140        C141   1.383       .  A
C140        H143   1.082       .  S
C141        C142   1.380       .  A
C141        C321   1.467       .  S
C142        H144   1.081       .  S
C145        N146   1.354       .  A
C145        N150   1.355       .  A
C145        C815   1.433       .  S
N146        C147   1.357       .  A
C147        N148   1.357       .  A
N148        C149   1.357       .  A
C149        N150   1.359       .  A
C151        C152   1.538       .  S
C151        C157   1.537       .  S
C151        C155   1.537       .  S
C151        C816   1.465       .  S
C152        H159   1.086       .  S
C152        C153   1.363       .  D
C153        C154   1.532       .  S
C153        C813   1.438       .  S
C154        C158   1.533       .  S
C154        C156   1.531       .  S
C154        H160   1.113       .  S
C155        H161   1.086       .  S
C155        C156   1.363       .  D
C156        C811   1.437       .  S
C157        H162   1.086       .  S
C157        C158   1.364       .  D
C158        C809   1.440   1_455  S
C163        N164   1.355       .  A
C163        N168   1.355       .  A
C163        C807   1.433       .  S
N164        C165   1.357       .  A
C165        N166   1.356       .  A
N166        C167   1.357       .  A
C167        N168   1.359       .  A
C169        C170   1.537       .  S
C169        C175   1.537       .  S
C169        C173   1.538       .  S
C169        C808   1.465       .  S
C170        H177   1.086       .  S
C170        C171   1.363       .  D
C171        C172   1.532       .  S
C171        C806   1.437       .  S
C172        C176   1.533       .  S
C172        C174   1.532       .  S
C172        H178   1.112       .  S
C173        H179   1.086       .  S
C173        C174   1.363       .  D
C174        C803   1.439       .  S
C175        H180   1.087       .  S
C175        C176   1.364       .  D
C176        C810   1.440       .  S
N181        N182   1.322       .  A
N181        C185   1.346       .  A
N181       Cu189   2.074       .  S
N182        C183   1.341       .  A
N182       Cu188   2.053       .  S
C183        C184   1.374       .  A
C183        H186   1.082       .  S
C184        C185   1.381       .  A
C184        C802   1.431       .  S
C185        H187   1.082       .  S
Cu188       N191   2.053       .  S
Cu189       N199   2.074       .  S
Cu190       N192   2.069       .  S
Cu190       N198   2.069       .  S
N191        N192   1.321       .  A
N191        C195   1.341       .  A
N192        C193   1.345       .  A
C193        C194   1.384       .  A
C193        H196   1.082       .  S
C194        C195   1.379       .  A
C194        C357   1.464       .  S
C195        H197   1.082       .  S
N198        N199   1.323       .  A
N198        C202   1.343       .  A
N199        C200   1.346       .  A
C200        C201   1.382       .  A
C200        H203   1.082       .  S
C201        C202   1.380       .  A
C202        H204   1.081       .  S
C205        C206   1.534       .  S
C205        C211   1.536       .  S
C205        C209   1.536       .  S
C205        C797   1.459       .  S
C206        H213   1.087       .  S
C206        C207   1.361       .  D
C207        C208   1.532       .  S
C207        C800   1.434       .  S
C208        C212   1.533       .  S
C208        C210   1.532       .  S
C208        H214   1.113       .  S
C209        H215   1.087       .  S
C209        C210   1.361       .  D
C210        C793   1.437       .  S
C211        H216   1.086       .  S
C211        C212   1.364       .  D
C212        C795   1.438       .  S
C217        C218   1.537       .  S
C217        C223   1.537       .  S
C217        C221   1.534       .  S
C217        C801   1.462       .  S
C218        H225   1.087       .  S
C218        C219   1.362       .  D
C219        C220   1.532       .  S
C219        C789   1.439       .  S
C220        C224   1.533       .  S
C220        C222   1.532       .  S
C220        H226   1.113       .  S
C221        H227   1.087       .  S
C221        C222   1.361       .  D
C222        C799   1.434       .  S
C223        H228   1.086       .  S
C223        C224   1.365       .  D
C224        C792   1.440       .  S
N229        N230   1.323       .  A
N229        C233   1.346       .  A
N229       Cu237   2.071       .  S
N230        C231   1.340       .  A
N230       Cu236   2.052   1_565  S
C231        C232   1.374       .  A
C231        H234   1.082       .  S
C232        C233   1.379       .  A
C232        C798   1.428       .  S
C233        H235   1.082       .  S
Cu236       N239   2.053       .  S
Cu237       N247   2.071   1_565  S
Cu238       N240   2.069       .  S
Cu238       N246   2.070       .  S
N239        N240   1.320       .  A
N239        C243   1.342       .  A
N240        C241   1.344       .  A
C241        C242   1.384       .  A
C241        H244   1.082       .  S
C242        C243   1.380       .  A
C242        C359   1.464       .  S
C243        H245   1.082       .  S
N246        N247   1.323       .  A
N246        C250   1.343       .  A
N247        C248   1.346       .  A
C248        C249   1.382       .  A
C248        H251   1.082   1_545  S
C249        C250   1.381       .  A
C250        H252   1.081       .  S
N253        N254   1.323       .  A
N253        C257   1.346       .  A
N253       Cu261   2.071   1_565  S
N254        C255   1.341       .  A
N254       Cu260   2.056   1_565  S
C255        C256   1.374       .  A
C255        H258   1.082       .  S
C256        C257   1.379       .  A
C256        C788   1.429       .  S
C257        H259   1.082       .  S
Cu260       N263   2.056       .  S
Cu261       N271   2.071       .  S
Cu262       N264   2.069       .  S
Cu262       N270   2.069       .  S
N263        N264   1.321       .  A
N263        C267   1.342       .  A
N264        C265   1.344       .  A
C265        C266   1.383       .  A
C265        H268   1.082       .  S
C266        C267   1.380       .  A
C266        C327   1.465       .  S
C267        H269   1.082       .  S
N270        N271   1.323       .  A
N270        C274   1.343       .  A
N271        C272   1.346       .  A
C272        C273   1.382       .  A
C272        H275   1.082   1_545  S
C273        C274   1.381       .  A
C274        H276   1.081       .  S
C277        C278   1.535       .  S
C277        C283   1.537       .  S
C277        C281   1.537       .  S
C277        C783   1.461       .  S
C278        H285   1.087       .  S
C278        C279   1.361       .  D
C279        C280   1.533       .  S
C279        C785   1.435       .  S
C280        C284   1.533       .  S
C280        C282   1.533       .  S
C280        H286   1.112       .  S
C281        H287   1.087       .  S
C281        C282   1.362       .  D
C282        C781   1.439       .  S
C283        H288   1.087       .  S
C283        C284   1.364       .  D
C284        C791   1.440       .  S
C289        C290   1.536       .  S
C289        C295   1.536       .  S
C289        C293   1.535       .  S
C289        C787   1.460       .  S
C290        H297   1.087       .  S
C290        C291   1.361       .  D
C291        C292   1.532       .  S
C291        C779   1.437       .  S
C292        C296   1.533       .  S
C292        C294   1.532       .  S
C292        H298   1.113       .  S
C293        H299   1.086       .  S
C293        C294   1.362       .  D
C294        C786   1.435       .  S
C295        H300   1.086       .  S
C295        C296   1.364       .  D
C296        C796   1.438       .  S
N301        N302   1.322       .  A
N301        C305   1.346       .  A
N301       Cu309   2.073       .  S
N302        C303   1.342       .  A
N302       Cu308   2.054       .  S
C303        C304   1.375       .  A
C303        H306   1.082       .  S
C304        C305   1.380       .  A
C304        C784   1.431       .  S
C305        H307   1.082       .  S
Cu308       N311   2.054       .  S
Cu309       N319   2.073       .  S
Cu310       N312   2.069       .  S
Cu310       N318   2.070       .  S
N311        N312   1.321       .  A
N311        C315   1.341       .  A
N312        C313   1.345       .  A
C313        C314   1.384       .  A
C313        H316   1.082       .  S
C314        C315   1.380       .  A
C314        C329   1.465       .  S
C315        H317   1.082       .  S
N318        N319   1.323       .  A
N318        C322   1.343       .  A
N319        C320   1.346       .  A
C320        C321   1.382       .  A
C320        H323   1.082       .  S
C321        C322   1.381       .  A
C322        H324   1.081       .  S
C325        N326   1.355       .  A
C325        N330   1.354       .  A
C325        C777   1.433       .  S
N326        C327   1.359       .  A
C327        N328   1.358       .  A
N328        C329   1.357       .  A
C329        N330   1.357       .  A
C331        C332   1.538       .  S
C331        C337   1.537   1_554  S
C331        C335   1.537       .  S
C331        C778   1.465   1_554  S
C332        H339   1.086       .  S
C332        C333   1.363       .  D
C333        C334   1.532       .  S
C333        C776   1.439       .  S
C334        C338   1.533       .  S
C334        C336   1.532       .  S
C334        H340   1.112       .  S
C335        H341   1.086       .  S
C335        C336   1.363       .  D
C336        C773   1.438       .  S
C337        H342   1.087       .  S
C337        C338   1.364   1_556  D
C338        C771   1.441       .  S
C343        C344   1.537       .  S
C343        C349   1.537   1_554  S
C343        C347   1.538       .  S
C343        C769   1.466   1_554  S
C344        H351   1.086       .  S
C344        C345   1.363       .  D
C345        C346   1.532       .  S
C345        C766   1.438       .  S
C346        C350   1.533       .  S
C346        C348   1.532       .  S
C346        H352   1.112       .  S
C347        H353   1.086       .  S
C347        C348   1.363       .  D
C348        C767   1.439       .  S
C349        H354   1.087       .  S
C349        C350   1.364   1_556  D
C350        C772   1.441       .  S
C355        N356   1.355       .  A
C355        N360   1.356       .  A
C355        C770   1.433       .  S
N356        C357   1.357       .  A
C357        N358   1.356       .  A
N358        C359   1.357       .  A
C359        N360   1.359       .  A
N361        N362   1.323       .  A
N361        C365   1.346       .  A
N361       Cu369   2.075       .  S
N362        C363   1.342       .  A
N362       Cu368   2.055       .  S
C363        C364   1.375       .  A
C363        H366   1.082       .  S
C364        C365   1.380       .  A
C364        C764   1.431       .  S
C365        H367   1.082       .  S
Cu368       N371   2.055       .  S
Cu369       N379   2.075       .  S
Cu370       N372   2.068       .  S
Cu370       N378   2.069       .  S
N371        N372   1.321       .  A
N371        C375   1.342       .  A
N372        C373   1.345       .  A
C373        C374   1.383       .  A
C373        H376   1.082       .  S
C374        C375   1.380       .  A
C374        C539   1.464       .  S
C375        H377   1.082       .  S
N378        N379   1.323       .  A
N378        C382   1.343       .  A
N379        C380   1.346       .  A
C380        C381   1.383       .  A
C380        H383   1.082       .  S
C381        C382   1.380       .  A
C381        C609   1.467       .  S
C382        H384   1.081       .  S
C385        C386   1.537       .  S
C385        C391   1.537       .  S
C385        C389   1.535       .  S
C385        C763   1.462       .  S
C386        H393   1.087       .  S
C386        C387   1.362       .  D
C387        C388   1.533       .  S
C387        C768   1.439       .  S
C388        C392   1.533       .  S
C388        C390   1.532       .  S
C388        H394   1.112       .  S
C389        H395   1.087       .  S
C389        C390   1.362       .  D
C390        C761   1.436       .  S
C391        H396   1.087       .  S
C391        C392   1.365       .  D
C392        C759   1.440       .  S
C397        C398   1.535       .  S
C397        C403   1.536       .  S
C397        C401   1.537       .  S
C397        C758   1.461       .  S
C398        H405   1.087       .  S
C398        C399   1.362       .  D
C399        C400   1.532       .  S
C399        C762   1.436       .  S
C400        C404   1.533       .  S
C400        C402   1.532       .  S
C400        H406   1.112       .  S
C401        H407   1.087       .  S
C401        C402   1.362       .  D
C402        C765   1.438       .  S
C403        H408   1.086       .  S
C403        C404   1.364       .  D
C404        C756   1.439       .  S
N409        N410   1.323   1_545  A
N409        C413   1.346       .  A
N409       Cu417   2.072   1_545  S
N410        C411   1.341   1_565  A
N410       Cu416   2.055       .  S
C411        C412   1.374       .  A
C411        H414   1.082       .  S
C412        C413   1.380       .  A
C412        C757   1.430       .  S
C413        H415   1.082       .  S
Cu416       N419   2.055       .  S
Cu417       N427   2.072       .  S
Cu418       N420   2.070       .  S
Cu418       N426   2.070       .  S
N419        N420   1.321       .  A
N419        C423   1.342       .  A
N420        C421   1.344       .  A
C421        C422   1.383       .  A
C421        H424   1.082       .  S
C422        C423   1.380       .  A
C422        C537   1.464       .  S
C423        H425   1.082       .  S
N426        N427   1.323       .  A
N426        C430   1.343       .  A
N427        C428   1.346       .  A
C428        C429   1.383       .  A
C428        H431   1.082   1_565  S
C429        C430   1.381       .  A
C429        C561   1.468       .  S
C430        H432   1.081       .  S
N433        N434   1.323       .  A
N433        C437   1.346       .  A
N433       Cu441   2.076       .  S
N434        C435   1.342       .  A
N434       Cu440   2.054       .  S
C435        C436   1.374       .  A
C435        H438   1.082       .  S
C436        C437   1.381       .  A
C436        C754   1.432       .  S
C437        H439   1.082       .  S
Cu440       N443   2.054       .  S
Cu441       N451   2.076       .  S
Cu442       N444   2.068       .  S
Cu442       N450   2.068       .  S
N443        N444   1.320       .  A
N443        C447   1.341       .  A
N444        C445   1.345       .  A
C445        C446   1.384       .  A
C445        H448   1.082       .  S
C446        C447   1.380       .  A
C446        C509   1.464       .  S
C447        H449   1.082       .  S
N450        N451   1.323       .  A
N450        C454   1.343       .  A
N451        C452   1.346       .  A
C452        C453   1.383       .  A
C452        H455   1.082       .  S
C453        C454   1.380       .  A
C453        C633   1.468       .  S
C454        H456   1.081       .  S
C457        C458   1.535       .  S
C457        C463   1.537       .  S
C457        C461   1.537       .  S
C457        C753   1.462       .  S
C458        H465   1.087       .  S
C458        C459   1.361       .  D
C459        C460   1.532       .  S
C459        C751   1.435       .  S
C460        C464   1.533       .  S
C460        C462   1.533       .  S
C460        H466   1.112       .  S
C461        H467   1.087       .  S
C461        C462   1.362       .  D
C462        C775   1.439       .  S
C463        H468   1.086       .  S
C463        C464   1.365       .  D
C464        C760   1.440       .  S
C469        C470   1.536       .  S
C469        C475   1.537       .  S
C469        C473   1.534       .  S
C469        C750   1.460       .  S
C470        H477   1.087       .  S
C470        C471   1.361       .  D
C471        C472   1.532       .  S
C471        C774   1.438       .  S
C472        C476   1.533       .  S
C472        C474   1.532       .  S
C472        H478   1.113       .  S
C473        H479   1.087       .  S
C473        C474   1.362       .  D
C474        C752   1.435       .  S
C475        H480   1.086       .  S
C475        C476   1.364       .  D
C476        C755   1.439       .  S
N481        N482   1.323   1_545  A
N481        C485   1.346       .  A
N481       Cu489   2.072   1_545  S
N482        C483   1.341   1_565  A
N482       Cu488   2.054       .  S
C483        C484   1.374       .  A
C483        H486   1.082       .  S
C484        C485   1.380       .  A
C484        C749   1.429       .  S
C485        H487   1.082       .  S
Cu488       N491   2.054       .  S
Cu489       N499   2.073       .  S
Cu490       N492   2.070       .  S
Cu490       N498   2.070       .  S
N491        N492   1.321       .  A
N491        C495   1.342       .  A
N492        C493   1.344       .  A
C493        C494   1.383       .  A
C493        H496   1.082       .  S
C494        C495   1.380       .  A
C494        C507   1.464       .  S
C495        H497   1.082       .  S
N498        N499   1.323       .  A
N498        C502   1.343       .  A
N499        C500   1.346       .  A
C500        C501   1.383       .  A
C500        H503   1.082   1_565  S
C501        C502   1.381       .  A
C501        C681   1.467       .  S
C502        H504   1.081       .  S
C505        N506   1.356       .  A
C505        N510   1.354       .  A
C505        C747   1.433       .  S
N506        C507   1.359       .  A
C507        N508   1.357       .  A
N508        C509   1.356       .  A
C509        N510   1.357       .  A
C511        C512   1.538       .  S
C511        C517   1.537       .  S
C511        C515   1.537       .  S
C511        C748   1.465       .  S
C512        H519   1.086       .  S
C512        C513   1.363       .  D
C513        C514   1.531       .  S
C513        C782   1.438       .  S
C514        C518   1.533       .  S
C514        C516   1.531       .  S
C514        H520   1.112       .  S
C515        H521   1.086       .  S
C515        C516   1.363       .  D
C516        C780   1.437       .  S
C517        H522   1.087       .  S
C517        C518   1.364       .  D
C518        C745   1.440       .  S
C523        C524   1.537       .  S
C523        C529   1.536       .  S
C523        C527   1.538       .  S
C523        C743   1.465       .  S
C524        H531   1.086       .  S
C524        C525   1.363       .  D
C525        C526   1.532       .  S
C525        C794   1.437   1_554  S
C526        C530   1.533       .  S
C526        C528   1.532       .  S
C526        H532   1.112       .  S
C527        H533   1.086       .  S
C527        C528   1.363       .  D
C528        C790   1.439       .  S
C529        H534   1.087       .  S
C529        C530   1.364       .  D
C530        C746   1.440       .  S
C535        N536   1.355       .  A
C535        N540   1.354       .  A
C535        C744   1.432       .  S
N536        C537   1.358       .  A
C537        N538   1.357       .  A
N538        C539   1.357       .  A
C539        N540   1.357       .  A
N541        N542   1.323   1_545  A
N541        C545   1.346       .  A
N541       Cu549   2.075   1_545  S
N542        C543   1.342   1_565  A
N542       Cu548   2.055       .  S
C543        C544   1.374       .  A
C543        H546   1.082   1_545  S
C544        C545   1.380       .  A
C544        C741   1.431       .  S
C545        H547   1.082       .  S
Cu548       N551   2.055       .  S
Cu549       N559   2.076       .  S
Cu550       N552   2.070       .  S
Cu550       N558   2.070       .  S
N551        N552   1.321       .  A
N551        C555   1.342       .  A
N552        C553   1.345       .  A
C553        C554   1.384       .  A
C553        H556   1.082       .  S
C554        C555   1.380       .  A
C554        C689   1.465       .  S
C555        H557   1.082       .  S
N558        N559   1.323       .  A
N558        C562   1.343       .  A
N559        C560   1.346       .  A
C560        C561   1.383       .  A
C560        H563   1.082   1_565  S
C561        C562   1.381       .  A
C562        H564   1.081       .  S
C565        C566   1.536       .  S
C565        C571   1.537       .  S
C565        C569   1.535       .  S
C565        C737   1.460       .  S
C566        H573   1.087       .  S
C566        C567   1.361       .  D
C567        C568   1.532       .  S
C567        C812   1.437       .  S
C568        C572   1.533       .  S
C568        C570   1.532       .  S
C568        H574   1.112       .  S
C569        H575   1.087       .  S
C569        C570   1.362       .  D
C570        C740   1.435       .  S
C571        H576   1.086       .  S
C571        C572   1.364       .  D
C572        C735   1.439   1_455  S
C577        C578   1.535       .  S
C577        C583   1.537       .  S
C577        C581   1.537       .  S
C577        C742   1.462       .  S
C578        H585   1.087       .  S
C578        C579   1.362       .  D
C579        C580   1.532       .  S
C579        C739   1.435       .  S
C580        C584   1.533       .  S
C580        C582   1.533       .  S
C580        H586   1.112       .  S
C581        H587   1.087       .  S
C581        C582   1.362       .  D
C582        C814   1.439       .  S
C583        H588   1.086       .  S
C583        C584   1.365       .  D
C584        C733   1.440   1_455  S
N589        N590   1.323       .  A
N589        C593   1.346       .  A
N589       Cu597   2.071       .  S
N590        C591   1.341       .  A
N590       Cu596   2.055       .  S
C591        C592   1.374       .  A
C591        H594   1.082       .  S
C592        C593   1.379       .  A
C592        C738   1.429       .  S
C593        H595   1.082       .  S
Cu596       N599   2.055       .  S
Cu597       N607   2.071       .  S
Cu598       N600   2.071       .  S
Cu598       N606   2.071       .  S
N599        N600   1.321       .  A
N599        C603   1.342       .  A
N600        C601   1.344       .  A
C601        C602   1.384       .  A
C601        H604   1.082       .  S
C602        C603   1.380       .  A
C602        C687   1.465       .  S
C603        H605   1.082       .  S
N606        N607   1.323       .  A
N606        C610   1.343       .  A
N607        C608   1.346       .  A
C608        C609   1.382       .  A
C608        H611   1.082       .  S
C609        C610   1.381       .  A
C610        H612   1.081       .  S
N613        N614   1.323       .  A
N613        C617   1.346       .  A
N613       Cu621   2.071       .  S
N614        C615   1.341       .  A
N614       Cu620   2.055       .  S
C615        C616   1.374       .  A
C615        H618   1.082       .  S
C616        C617   1.379       .  A
C616        C732   1.430       .  S
C617        H619   1.082       .  S
Cu620       N623   2.056       .  S
Cu621       N631   2.071       .  S
Cu622       N624   2.070       .  S
Cu622       N630   2.071       .  S
N623        N624   1.321       .  A
N623        C627   1.343       .  A
N624        C625   1.344       .  A
C625        C626   1.383       .  A
C625        H628   1.082       .  S
C626        C627   1.380       .  A
C626        C705   1.465       .  S
C627        H629   1.082       .  S
N630        N631   1.323       .  A
N630        C634   1.343       .  A
N631        C632   1.346       .  A
C632        C633   1.382       .  A
C632        H635   1.082       .  S
C633        C634   1.381       .  A
C634        H636   1.081       .  S
C637        C638   1.535       .  S
C637        C643   1.536       .  S
C637        C641   1.536       .  S
C637        C731   1.460       .  S
C638        H645   1.087       .  S
C638        C639   1.362       .  D
C639        C640   1.532       .  S
C639        C729   1.435       .  S
C640        C644   1.533       .  S
C640        C642   1.532       .  S
C640        H646   1.113       .  S
C641        H647   1.087       .  S
C641        C642   1.361       .  D
C642        C805   1.438       .  S
C643        H648   1.086       .  S
C643        C644   1.364       .  D
C644        C736   1.439       .  S
C649        C650   1.537       .  S
C649        C655   1.537       .  S
C649        C653   1.535       .  S
C649        C728   1.462       .  S
C650        H657   1.086       .  S
C650        C651   1.362       .  D
C651        C652   1.532       .  S
C651        C804   1.439       .  S
C652        C656   1.533       .  S
C652        C654   1.532       .  S
C652        H658   1.112       .  S
C653        H659   1.087       .  S
C653        C654   1.362       .  D
C654        C730   1.436       .  S
C655        H660   1.086       .  S
C655        C656   1.365       .  D
C656        C734   1.440       .  S
N661        N662   1.322   1_545  A
N661        C665   1.346       .  A
N661       Cu669   2.074   1_545  S
N662        C663   1.342   1_565  A
N662       Cu668   2.055       .  S
C663        C664   1.375       .  A
C663        H666   1.082   1_545  S
C664        C665   1.380       .  A
C664        C727   1.432       .  S
C665        H667   1.082       .  S
Cu668       N671   2.055       .  S
Cu669       N679   2.074       .  S
Cu670       N672   2.069       .  S
Cu670       N678   2.070       .  S
N671        N672   1.321       .  A
N671        C675   1.342       .  A
N672        C673   1.345       .  A
C673        C674   1.384       .  A
C673        H676   1.082       .  S
C674        C675   1.380       .  A
C674        C707   1.465       .  S
C675        H677   1.082       .  S
N678        N679   1.323       .  A
N678        C682   1.343       .  A
N679        C680   1.346       .  A
C680        C681   1.382       .  A
C680        H683   1.082   1_565  S
C681        C682   1.381       .  A
C682        H684   1.081       .  S
C685        N686   1.356       .  A
C685        N690   1.355       .  A
C685        C725   1.434       .  S
N686        C687   1.359       .  A
C687        N688   1.357       .  A
N688        C689   1.357       .  A
C689        N690   1.358       .  A
C691        C692   1.538       .  S
C691        C697   1.537       .  S
C691        C695   1.537       .  S
C691        C726   1.466       .  S
C692        H699   1.086       .  S
C692        C693   1.363       .  D
C693        C694   1.532       .  S
C693        C827   1.439       .  S
C694        C698   1.533       .  S
C694        C696   1.532       .  S
C694        H700   1.112       .  S
C695        H701   1.086       .  S
C695        C696   1.363       .  D
C696        C832   1.438       .  S
C697        H702   1.087       .  S
C697        C698   1.364       .  D
C698        C724   1.441   1_455  S
C703        N704   1.356       .  A
C703        N708   1.355       .  A
C703        C721   1.433       .  S
N704        C705   1.359       .  A
C705        N706   1.357       .  A
N706        C707   1.357       .  A
C707        N708   1.357       .  A
C709        C710   1.537       .  S
C709        C715   1.537       .  S
C709        C713   1.538       .  S
C709        C722   1.466       .  S
C710        H717   1.086       .  S
C710        C711   1.363       .  D
C711        C712   1.532       .  S
C711        C818   1.438       .  S
C712        C716   1.533       .  S
C712        C714   1.532       .  S
C712        H718   1.113       .  S
C713        H719   1.086       .  S
C713        C714   1.363       .  D
C714        C821   1.439       .  S
C715        H720   1.087       .  S
C715        C716   1.364       .  D
C716        C723   1.441       .  S
C721        C722   1.205       .  T
C723        C724   1.205       .  T
C725        C726   1.205       .  T
C727        C728   1.203       .  T
C729        C730   1.202       .  T
C731        C732   1.202       .  T
C733        C734   1.205       .  T
C735        C736   1.204       .  T
C737        C738   1.202       .  T
C739        C740   1.202       .  T
C741        C742   1.203       .  T
C743        C744   1.204       .  T
C745        C746   1.205       .  T
C747        C748   1.204       .  T
C749        C750   1.202       .  T
C751        C752   1.202       .  T
C753        C754   1.203       .  T
C755        C756   1.204       .  T
C757        C758   1.202       .  T
C759        C760   1.205       .  T
C761        C762   1.202       .  T
C763        C764   1.203       .  T
C765        C766   1.203       .  T
C767        C768   1.204       .  T
C769        C770   1.205       .  T
C771        C772   1.205       .  T
C773        C774   1.203       .  T
C775        C776   1.204       .  T
C777        C778   1.205       .  T
C779        C780   1.203   1_556  T
C781        C782   1.204   1_556  T
C783        C784   1.202       .  T
C785        C786   1.202       .  T
C787        C788   1.202       .  T
C789        C790   1.204   1_556  T
C791        C792   1.205       .  T
C793        C794   1.203       .  T
C795        C796   1.204       .  T
C797        C798   1.201       .  T
C799        C800   1.201       .  T
C801        C802   1.202       .  T
C803        C804   1.204       .  T
C805        C806   1.203       .  T
C807        C808   1.204       .  T
C809        C810   1.205       .  T
C811        C812   1.203       .  T
C813        C814   1.204       .  T
C815        C816   1.204       .  T
C817        C818   1.203       .  T
C819        C820   1.202       .  T
C821        C822   1.204       .  T
C823        C824   1.201       .  T
C825        C826   1.203       .  T
C827        C828   1.204       .  T
C829        C830   1.205       .  T
C831        C832   1.203       .  T
C833        C834   1.204       .  T
C835        C836   1.202       .  T
C837        C838   1.202       .  T
C839        C840   1.202       .  T
