geometry optimzed in LAMMPS
_audit_creation_date              2020-11-30 
_audit_creation_method            'lammps2cif' 
_symmetry_space_group_name_H-M    'P1' 
_symmetry_Int_Tables_number       1 
_symmetry_cell_setting            triclinic 
loop_ 
_symmetry_equiv_pos_as_xyz 
  x,y,z 
_cell_length_a                    36.73193629752621 
_cell_length_b                    36.95828372810956 
_cell_length_c                    48.322543751444385 
_cell_angle_alpha                 91.6673534609046 
_cell_angle_beta                  89.52558892862045 
_cell_angle_gamma                 120.76853026119551 
loop_ 
_atom_site_label 
_atom_site_type_symbol 
_atom_site_fract_x 
_atom_site_fract_y 
_atom_site_fract_z 
_atom_site_charge 
C1          C  0.33748228  0.17224415  0.00472288    -0.02980
C2          C  0.33340688  0.16661121  0.12905449    -0.02980
C3          C  0.15880386  0.33742571  0.37743200    -0.02980
C4          C  0.16094267  0.34406153  0.25400903    -0.02980
N5          N  0.47234394  0.06482313  0.47934769    -0.06610
N6          N  0.46467908  0.09607382  0.47991663    -0.58730
N7          N  0.48002417  0.48964824  0.01195425    -0.06290
N8          N  0.47172827  0.47423332  0.03707953    -0.60850
N9          N  0.01560971  0.02631629  0.01209659    -0.05880
N10         N  0.03208841  0.03644082  0.03740336    -0.58700
N11         N  0.43663682  0.02835480  0.47998073    -0.05560
N12         N  0.40398756  0.03401775  0.48114215    -0.61210
C13         C  0.42188837  0.07636636  0.48109362     0.95570
C14         C  0.50467146  0.50338739  0.05272154     0.95350
N15         N  0.44481157  0.39922756  0.44562719    -0.06790
N16         N  0.43672298  0.36014055  0.44504785    -0.59300
N17         N  0.39183766  0.44809515  0.44111497    -0.04910
N18         N  0.35191377  0.43828336  0.44193200    -0.60560
N19         N  0.40108540  0.43874672  0.41655096    -0.06820
N20         N  0.36746812  0.42236357  0.40016415    -0.59570
N21         N  0.43653797  0.40950002  0.47022134    -0.04550
N22         N  0.42264327  0.37740032  0.48689589    -0.60640
Mn23       Mn  0.43572589  0.46840380  0.47640688     1.18440
C24         C  0.42359458  0.34718188  0.47094127     0.97650
C25         C  0.33713267  0.42247399  0.41626050     0.98320
N26         N  0.09319395  0.06799108  0.47017965    -0.06840
N27         N  0.12626089  0.08389585  0.48699980    -0.63150
N28         N  0.06033454  0.09792079  0.41590359    -0.05640
N29         N  0.07614855  0.13003518  0.39915083    -0.63820
N30         N  0.05155828  0.10876561  0.44012361    -0.06350
N31         N  0.06152424  0.14850965  0.44037320    -0.63420
N32         N  0.10241599  0.05713157  0.44611848    -0.05240
N33         N  0.14173994  0.06503782  0.44622333    -0.64110
Mn34       Mn  0.03365473  0.06775823  0.47597708     1.10660
C35         C  0.15614423  0.08136032  0.47190495     0.98870
C36         C  0.07652947  0.16129334  0.41467170     0.98950
N37         N  0.47932643  0.48206297  0.37405544    -0.06360
N38         N  0.46280094  0.47275062  0.34874412    -0.61730
N39         N  0.05788122  0.47817796  0.40611160    -0.05670
N40         N  0.09004909  0.47177573  0.40479674    -0.58460
N41         N  0.02181103  0.44211216  0.40592568    -0.06990
N42         N  0.02866958  0.41036782  0.40456722    -0.61300
N43         N  0.01553001  0.01821392  0.37434147    -0.05970
N44         N  0.02406937  0.03415379  0.34935881    -0.58480
Mn45       Mn  0.46112449  0.43993806  0.40991937     1.20190
Mn46       Mn  0.05963645  0.03832635  0.41010555     1.10090
Cl47       Cl  0.49748189  0.00365423  0.44306919    -0.86450
C48         C  0.49074905  0.00583383  0.33361156     0.95880
C49         C  0.07142527  0.42931332  0.40387706     0.95680
N50         N  0.40124533  0.43985989  0.21799939    -0.06610
N51         N  0.36784259  0.42455847  0.23433988    -0.58730
N52         N  0.43639441  0.41014940  0.16279009    -0.06290
N53         N  0.42062364  0.37706332  0.14554064    -0.60850
N54         N  0.44589806  0.40070647  0.18671355    -0.05880
N55         N  0.43709864  0.36135167  0.18613783    -0.58700
N56         N  0.39197577  0.44909091  0.19391741    -0.05560
N57         N  0.35238464  0.44018533  0.19330428    -0.61210
C58         C  0.33774004  0.42514041  0.21859673     0.95570
C59         C  0.42217254  0.34724998  0.16026410     0.95350
N60         N  0.01527484  0.02711245  0.12471975    -0.06790
N61         N  0.03180157  0.03701071  0.09965313    -0.59300
N62         N  0.43508201  0.02851918  0.15711852    -0.04910
N63         N  0.40226496  0.03394091  0.15587428    -0.60560
N64         N  0.47058752  0.06514509  0.15855542    -0.06820
N65         N  0.46269199  0.09621089  0.15845695    -0.59570
N66         N  0.47987423  0.49023716  0.12377666    -0.04550
N67         N  0.47180797  0.47445924  0.09816041    -0.60640
Mn68       Mn  0.43534622  0.46901294  0.15884837     1.18440
C69         C  0.50465535  0.50359711  0.08333927     0.97650
C70         C  0.41991917  0.07635229  0.15685206     0.98320
N71         N  0.02416932  0.44609701  0.22697458    -0.06840
N72         N  0.03272757  0.41540133  0.22673991    -0.63150
N73         N  0.01482868  0.02064582  0.26238888    -0.05640
N74         N  0.02324959  0.03582929  0.28816458    -0.63820
N75         N  0.47936082  0.48381761  0.26135370    -0.06350
N76         N  0.46315300  0.47342059  0.28647063    -0.63420
N77         N  0.05943405  0.48297455  0.22853077    -0.05240
N78         N  0.09259800  0.47820825  0.22964038    -0.64110
Mn79       Mn  0.46210888  0.44194175  0.22382428     1.10660
C80         C  0.07557894  0.43597451  0.22844730     0.98870
C81         C  0.49053603  0.00641204  0.30296878     0.98950
N82         N  0.04764880  0.11008327  0.19948802    -0.06360
N83         N  0.05524974  0.14904735  0.20044616    -0.61730
N84         N  0.10271480  0.06250798  0.19187954    -0.05670
N85         N  0.14240266  0.07149718  0.19204392    -0.58460
N86         N  0.09296863  0.07159672  0.16793270    -0.06990
N87         N  0.12595633  0.08687756  0.15129296    -0.61300
N88         N  0.05767180  0.10074082  0.22326231    -0.05970
N89         N  0.07297482  0.13357290  0.24067042    -0.58480
Mn90       Mn  0.03218525  0.06915608  0.16215242     1.20190
Mn91       Mn  0.05917071  0.04222706  0.22707887     1.10090
Cl92       Cl  0.49718528  0.00557443  0.19298869    -0.86450
C93         C  0.07022641  0.16303525  0.22634573     0.95880
C94         C  0.15650102  0.08647152  0.16659380     0.95680
C95         C  0.13811459  0.29667577  0.24440676    -0.05950
C96         C  0.09372312  0.27174002  0.24842022    -0.33380
C97         C  0.07112195  0.22832299  0.24260414     0.35870
C98         C  0.09275428  0.20793608  0.23424901    -0.06310
C99         C  0.13674714  0.23101676  0.23212045    -0.33280
C100        C  0.15966506  0.27463038  0.23728143     0.35770
H101        H  0.07621404  0.28626253  0.25587861     0.16140
O102        O  0.02789249  0.20609655  0.24521984    -0.60780
H103        H  0.15367925  0.21498322  0.22652928     0.16160
O104        O  0.20300984  0.29388386  0.23812777    -0.60880
H105        H  0.21171779  0.29070857  0.21914133     0.43150
H106        H  0.02269824  0.19689932  0.26465867     0.43110
C107        C  0.14164015  0.36946949  0.24207247    -0.05950
C108        C  0.15772761  0.41113833  0.25246917    -0.33380
C109        C  0.13745735  0.43351357  0.24735975     0.35870
C110        C  0.10059058  0.41509700  0.23094063    -0.06310
C111        C  0.08755412  0.37626896  0.21736561    -0.33280
C112        C  0.10908196  0.35451989  0.22161200     0.35770
H113        H  0.18409457  0.42528493  0.26677328     0.16140
O114        O  0.15257528  0.47233735  0.26004811    -0.60780
H115        H  0.06096260  0.36303641  0.20305658     0.16160
O116        O  0.09855490  0.31976698  0.20505195    -0.60880
H117        H  0.11752247  0.33063827  0.18884706     0.43150
H118        H  0.13883298  0.46656814  0.27844467     0.43110
C119        C  0.20811138  0.36951040  0.24489402    -0.05950
C120        C  0.21770196  0.36864111  0.21662375    -0.33380
C121        C  0.25969584  0.38685314  0.20768638     0.35870
C122        C  0.29330605  0.40780092  0.22690285    -0.06310
C123        C  0.28431754  0.41293883  0.25430302    -0.33280
C124        C  0.24246235  0.39631973  0.26297018     0.35770
H125        H  0.19236548  0.35131329  0.20167719     0.16140
O126        O  0.26735905  0.38240249  0.18034045    -0.60780
H127        H  0.30994849  0.43152162  0.26887483     0.16160
O128        O  0.23582037  0.40872630  0.28853034    -0.60880
H129        H  0.24767081  0.43957065  0.28780913     0.43150
H130        H  0.26788354  0.35583995  0.17900749     0.43110
C131        C  0.13583849  0.28993759  0.38683722    -0.05950
C132        C  0.13614371  0.28060874  0.41505245    -0.33380
C133        C  0.11708968  0.23939326  0.42436290     0.35870
C134        C  0.09583948  0.20514645  0.40570476    -0.06310
C135        C  0.09200800  0.21285225  0.37820387    -0.33280
C136        C  0.10958572  0.25402558  0.36886066     0.35770
H137        H  0.14894117  0.30442852  0.43098697     0.16140
O138        O  0.12037016  0.23312788  0.45186067    -0.60780
H139        H  0.07301129  0.18656887  0.36402534     0.16160
O140        O  0.09532713  0.25804214  0.34358425    -0.60880
H141        H  0.10281609  0.24244822  0.32984371     0.43150
H142        H  0.09734593  0.23535199  0.46109298     0.43110
C143        C  0.09455207  0.40627650  0.40119429    -0.05950
C144        C  0.07181826  0.36217515  0.40067003    -0.33380
C145        C  0.09168091  0.33908106  0.39482355     0.35870
C146        C  0.13615726  0.36007538  0.38996247    -0.06310
C147        C  0.15863876  0.40471815  0.39136046    -0.33280
C148        C  0.13863385  0.42748206  0.39741920     0.35770
H149        H  0.03780563  0.34515029  0.40354756     0.16140
O150        O  0.06632069  0.29619352  0.39216931    -0.60780
H151        H  0.19198170  0.42276059  0.38647010     0.16160
O152        O  0.16244122  0.47064433  0.39797073    -0.60880
H153        H  0.17287314  0.47874979  0.41732713     0.43150
H154        H  0.05333607  0.29081134  0.37345654     0.43110
C155        C  0.20704261  0.36340709  0.38739871    -0.05950
C156        C  0.21718440  0.37114086  0.41604780    -0.33380
C157        C  0.25893328  0.39005271  0.42601072     0.35870
C158        C  0.29267792  0.40432222  0.40733465    -0.06310
C159        C  0.28412766  0.40334464  0.37933975    -0.33280
C160        C  0.24263001  0.38593793  0.36948987     0.35770
H161        H  0.19344103  0.36612958  0.43109278     0.16140
O162        O  0.26612076  0.39422817  0.45404576    -0.60780
H163        H  0.31014897  0.41861247  0.36494008     0.16160
O164        O  0.23840935  0.39728352  0.34356094    -0.60880
H165        H  0.25474062  0.38891739  0.33118504     0.43150
H166        H  0.26746568  0.42091716  0.45965962     0.43110
C167        C  0.15661743  0.33733223  0.34524650    -0.05950
C168        C  0.13287262  0.35159364  0.33122921    -0.33380
C169        C  0.13071971  0.35098622  0.30240001     0.35870
C170        C  0.15663301  0.34066575  0.28607782    -0.06310
C171        C  0.17737320  0.32301298  0.29993742    -0.33280
C172        C  0.17635082  0.31990591  0.32870912     0.35770
H173        H  0.11384208  0.36181180  0.34217397     0.16140
O174        O  0.10143067  0.35866709  0.29088414    -0.60780
H175        H  0.19564952  0.31236734  0.28841043     0.16160
O176        O  0.19758677  0.30271598  0.34079813    -0.60880
H177        H  0.18215033  0.27251483  0.33497507     0.43150
H178        H  0.07390584  0.33191864  0.29216912     0.43110
C179        C  0.20069885  0.10387785  0.15737301    -0.05950
C180        C  0.20885622  0.10529766  0.12908246    -0.33380
C181        C  0.25022635  0.12339970  0.11908093     0.35870
C182        C  0.28565332  0.14329456  0.13778792    -0.06310
C183        C  0.27643219  0.13852492  0.16640612    -0.33280
C184        C  0.23482114  0.11942854  0.17617992     0.35770
H185        H  0.18269936  0.09115889  0.11440406     0.16140
O186        O  0.25457533  0.11724711  0.09139499    -0.60780
H187        H  0.30211037  0.15106561  0.18140671     0.16160
O188        O  0.22817528  0.11800738  0.20419422    -0.60880
H189        H  0.22781658  0.09233739  0.21007062     0.43150
H190        H  0.24238878  0.13177763  0.08142001     0.43110
C191        C  0.39992263  0.30233869  0.15226774    -0.05950
C192        C  0.42047113  0.28577470  0.13682461    -0.33380
C193        C  0.39997881  0.24259396  0.13003688     0.35870
C194        C  0.35770429  0.21429619  0.13906507    -0.06310
C195        C  0.33735586  0.23256350  0.15399980    -0.33280
C196        C  0.35840380  0.27552979  0.16112451     0.35770
H197        H  0.45265618  0.30639380  0.12996886     0.16140
O198        O  0.42170935  0.22827915  0.11445313    -0.60780
H199        H  0.30456098  0.21464750  0.15981597     0.16160
O200        O  0.33753632  0.29134124  0.17619325    -0.60880
H201        H  0.34301925  0.28851834  0.19584732     0.43150
H202        H  0.42359718  0.23923926  0.09566169     0.43110
C203        C  0.39561379  0.09817029  0.15468688    -0.05950
C204        C  0.35422886  0.07610692  0.14406399    -0.33380
C205        C  0.33277223  0.09708819  0.13762467     0.35870
C206        C  0.35261344  0.14157033  0.14189495    -0.06310
C207        C  0.39139091  0.16181053  0.15681561    -0.33280
C208        C  0.41362843  0.14115247  0.16190956     0.35770
H209        H  0.33925491  0.04275152  0.13896632     0.16140
O210        O  0.29435755  0.07439842  0.12434267    -0.60780
H211        H  0.40633042  0.19437952  0.16357750     0.16160
O212        O  0.45314201  0.16352885  0.17387249    -0.60880
H213        H  0.47259242  0.17909959  0.15855851     0.43150
H214        H  0.27372001  0.05863762  0.13907677     0.43110
C215        C  0.28933270  0.14938636  0.49489397    -0.05950
C216        C  0.27247091  0.11533178  0.47497690    -0.33380
C217        C  0.22929674  0.09191436  0.46811089     0.35870
C218        C  0.20121043  0.10276577  0.48004510    -0.06310
C219        C  0.21744388  0.13852309  0.49728419    -0.33280
C220        C  0.26072335  0.16272976  0.50364535     0.35770
H221        H  0.29242279  0.10665369  0.46364521     0.16140
O222        O  0.21492979  0.05814278  0.44987627    -0.60780
H223        H  0.19684967  0.14983703  0.50438027     0.16160
O224        O  0.27491042  0.20239994  0.01418581    -0.60880
H225        H  0.25754937  0.19917227  0.03082883     0.43150
H226        H  0.22115348  0.07035569  0.43121717     0.43110
C227        C  0.36229007  0.21805893  0.49454754    -0.05950
C228        C  0.34715755  0.23028414  0.47199313    -0.33380
C229        C  0.36736821  0.27215199  0.46407124     0.35870
C230        C  0.40350083  0.30299588  0.47848939    -0.06310
C231        C  0.42058179  0.29132055  0.49969687    -0.33280
C232        C  0.40140869  0.24916840  0.00708647     0.35770
H233        H  0.31943580  0.20758286  0.46027711     0.16140
O234        O  0.35111366  0.28277527  0.44238611    -0.60780
H235        H  0.44927798  0.31485844  0.01027811     0.16160
O236        O  0.42060801  0.23901476  0.02715645    -0.60880
H237        H  0.44220669  0.23508732  0.01735495     0.43150
H238        H  0.33092430  0.29005683  0.45088203     0.42950
C239        C  0.35771973  0.14624921  0.49302422    -0.05950
C240        C  0.33835064  0.10327467  0.00026583    -0.33380
C241        C  0.35797162  0.07984047  0.99561840     0.35870
C242        C  0.39790074  0.09849074  0.48308325    -0.06310
C243        C  0.41555010  0.13925122  0.47309205    -0.33280
C244        C  0.39535857  0.16253995  0.47692819     0.35770
H245        H  0.30899526  0.08875760  0.01176685     0.16140
O246        O  0.33876011  0.03948855  0.00493861    -0.60780
H247        H  0.44534780  0.15327456  0.46210382     0.16160
O248        O  0.41338866  0.20089914  0.46478003    -0.60880
H249        H  0.39962704  0.19508239  0.44630900     0.43150
H250        H  0.34799461  0.04243239  0.02452264     0.43110
C251        C  0.34002887  0.17387007  0.03753866    -0.05950
C252        C  0.35788920  0.15359187  0.05186396    -0.33380
C253        C  0.35716374  0.15083031  0.08051594     0.35870
C254        C  0.33769437  0.16849058  0.09696432    -0.06310
C255        C  0.32632115  0.19452899  0.08328092    -0.33280
C256        C  0.33095022  0.20031092  0.05463675     0.35770
H257        H  0.37616630  0.14201709  0.04159835     0.16140
O258        O  0.37813251  0.13279044  0.09155521    -0.60780
H259        H  0.31599646  0.21275868  0.09535493     0.16160
O260        O  0.33663425  0.23751554  0.04486740    -0.60880
H261        H  0.31945670  0.24605032  0.05620611     0.43150
H262        H  0.40845352  0.15523787  0.09216676     0.43110
C263        C  0.33748735  0.17224841  0.50472371    -0.02980
C264        C  0.33341061  0.16661554  0.62905488    -0.02980
C265        C  0.15879838  0.33742088  0.87743191    -0.02980
C266        C  0.16094363  0.34406288  0.75400893    -0.02980
N267        N  0.47233963  0.06481828  0.97934832    -0.06610
N268        N  0.46467525  0.09606923  0.97991792    -0.58730
N269        N  0.48002894  0.48965354  0.51195419    -0.06290
N270        N  0.47173276  0.47423856  0.53707941    -0.60850
N271        N  0.01561447  0.02632157  0.51209655    -0.05880
N272        N  0.03209281  0.03644613  0.53740344    -0.58700
N273        N  0.43663234  0.02835011  0.97998122    -0.05560
N274        N  0.40398335  0.03401343  0.98114313    -0.61210
C275        C  0.42188466  0.07636213  0.98109510     0.95570
C276        C  0.50467565  0.50339260  0.55272155     0.95350
N277        N  0.44480561  0.39922316  0.94562568    -0.06790
N278        N  0.43671615  0.36013589  0.94504542    -0.59300
N279        N  0.39183287  0.44809126  0.94111466    -0.04910
N280        N  0.35190869  0.43827850  0.94193199    -0.60560
N281        N  0.40108077  0.43874378  0.91655038    -0.06820
N282        N  0.36746326  0.42236025  0.90016374    -0.59570
N283        N  0.43653262  0.40949507  0.97022020    -0.04550
N284        N  0.42263764  0.37739470  0.98689420    -0.60640
Mn285      Mn  0.43572102  0.46839900  0.97640672     1.18440
C286        C  0.42358753  0.34717629  0.97093862     0.97650
C287        C  0.33712755  0.42246950  0.91626044     0.98320
N288        N  0.09318920  0.06798663  0.97018061    -0.06840
N289        N  0.12625620  0.08389225  0.98700080    -0.63150
N290        N  0.06033083  0.09791665  0.91590442    -0.05640
N291        N  0.07614462  0.13003094  0.89915160    -0.63820
N292        N  0.05155398  0.10876125  0.94012430    -0.06350
N293        N  0.06151936  0.14850512  0.94037374    -0.63420
N294        N  0.10241118  0.05712642  0.94611968    -0.05240
N295        N  0.14173509  0.06503269  0.94622479    -0.64110
Mn296      Mn  0.03365009  0.06775344  0.97597759     1.10660
C297        C  0.15613930  0.08135597  0.97190628     0.98870
C298        C  0.07652489  0.16128891  0.91467229     0.98950
N299        N  0.47932309  0.48206074  0.87405505    -0.06360
N300        N  0.46279862  0.47274933  0.84874343    -0.61730
N301        N  0.05787630  0.47817338  0.90611188    -0.05670
N302        N  0.09004378  0.47177055  0.90479726    -0.58460
N303        N  0.02180579  0.44210788  0.90592515    -0.06990
N304        N  0.02866372  0.41036313  0.90456640    -0.61300
N305        N  0.01552713  0.01821125  0.87434171    -0.05970
N306        N  0.02406776  0.03415182  0.84935925    -0.58480
Mn307      Mn  0.46111967  0.43993474  0.90991857     1.20190
Mn308      Mn  0.05963242  0.03832214  0.91010626     1.10090
Cl309      Cl  0.49747725  0.00364991  0.94306924    -0.86450
C310        C  0.49074784  0.00583274  0.83361140     0.95880
C311        C  0.07141940  0.42930809  0.90387690     0.95680
N312        N  0.40124679  0.43986125  0.71799887    -0.06610
N313        N  0.36784402  0.42455942  0.73433937    -0.58730
N314        N  0.43639720  0.41015254  0.66278941    -0.06290
N315        N  0.42062701  0.37706659  0.64553989    -0.60850
N316        N  0.44590118  0.40070977  0.68671281    -0.05880
N317        N  0.43710279  0.36135538  0.68613698    -0.58700
N318        N  0.39197706  0.44909230  0.69391695    -0.05560
N319        N  0.35238577  0.44018630  0.69330388    -0.61210
C320        C  0.33774122  0.42514110  0.71859632     0.95570
C321        C  0.42217688  0.34725371  0.66026327     0.95350
N322        N  0.01527696  0.02711634  0.62471987    -0.06790
N323        N  0.03180435  0.03701524  0.59965346    -0.59300
N324        N  0.43508297  0.02852122  0.65711863    -0.04910
N325        N  0.40226565  0.03394259  0.65587455    -0.60560
N326        N  0.47058830  0.06514726  0.65855588    -0.06820
N327        N  0.46269237  0.09621278  0.65845778    -0.59570
N328        N  0.47987655  0.49024091  0.62377640    -0.04550
N329        N  0.47181107  0.47446350  0.59816002    -0.60640
Mn330      Mn  0.43534799  0.46901547  0.65884799     1.18440
C331        C  0.50465874  0.50360187  0.58333927     0.97650
C332        C  0.41991953  0.07635391  0.65685278     0.98320
N333        N  0.02417141  0.44609935  0.72697403    -0.06840
N334        N  0.03272964  0.41540365  0.72673935    -0.63150
N335        N  0.01482997  0.02064689  0.76238897    -0.05640
N336        N  0.02325021  0.03582957  0.78816490    -0.63820
N337        N  0.47936198  0.48381880  0.76135329    -0.06350
N338        N  0.46315341  0.47342108  0.78646998    -0.63420
N339        N  0.05943614  0.48297687  0.72853032    -0.05240
N340        N  0.09260008  0.47821055  0.72964007    -0.64110
Mn341      Mn  0.46211084  0.44194388  0.72382369     1.10660
C342        C  0.07558099  0.43597679  0.72844689     0.98870
C343        C  0.49053608  0.00641194  0.80296860     0.98950
N344        N  0.04764935  0.11008513  0.69948871    -0.06360
N345        N  0.05524966  0.14904895  0.70044717    -0.61730
N346        N  0.10271692  0.06251124  0.69187927    -0.05670
N347        N  0.14240494  0.07150074  0.69204323    -0.58460
N348        N  0.09297046  0.07160038  0.66793266    -0.06990
N349        N  0.12595805  0.08688176  0.65129275    -0.61300
N350        N  0.05767278  0.10074259  0.72326281    -0.05970
N351        N  0.07297552  0.13357440  0.74067110    -0.58480
Mn352      Mn  0.03218653  0.06915898  0.66215278     1.20190
Mn353      Mn  0.05917247  0.04222920  0.72707885     1.10090
Cl354      Cl  0.49718698  0.00557688  0.69298855    -0.86450
C355        C  0.07022643  0.16303662  0.72634673     0.95880
C356        C  0.15650314  0.08647569  0.66659314     0.95680
C357        C  0.13811524  0.29667719  0.74440661    -0.05950
C358        C  0.09372365  0.27174188  0.74841977    -0.33380
C359        C  0.07112226  0.22832475  0.74260418     0.35870
C360        C  0.09275446  0.20793738  0.73424992    -0.06310
C361        C  0.13674733  0.23101766  0.73212153    -0.33280
C362        C  0.15966548  0.27463135  0.73728194     0.35770
H363        H  0.07621467  0.28626474  0.75587764     0.16140
O364        O  0.02789274  0.20609869  0.74521956    -0.60780
H365        H  0.15367926  0.21498376  0.72653083     0.16160
O366        O  0.20301023  0.29388459  0.73812828    -0.60880
H367        H  0.21171810  0.29070901  0.71914188     0.43150
H368        H  0.02269807  0.19690195  0.76465850     0.43110
C369        C  0.14164155  0.36947121  0.74207235    -0.05950
C370        C  0.15772884  0.41113983  0.75246942    -0.33380
C371        C  0.13745881  0.43351528  0.74735991     0.35870
C372        C  0.10059251  0.41509916  0.73094034    -0.06310
C373        C  0.08755628  0.37627137  0.71736505    -0.33280
C374        C  0.10908389  0.35452210  0.72161154     0.35770
H375        H  0.18409540  0.42528600  0.76677385     0.16140
O376        O  0.15257643  0.47233878  0.76004863    -0.60780
H377        H  0.06096512  0.36303916  0.70305574     0.16160
O378        O  0.09855707  0.31976940  0.70505131    -0.60880
H379        H  0.11752444  0.33064101  0.68884635     0.43150
H380        H  0.13883351  0.46656913  0.77844500     0.43110
C381        C  0.20811239  0.36951135  0.74489391    -0.05950
C382        C  0.21770295  0.36864188  0.71662365    -0.33380
C383        C  0.25969682  0.38685373  0.70768621     0.35870
C384        C  0.29330715  0.40780147  0.72690260    -0.06310
C385        C  0.28431866  0.41293932  0.75430282    -0.33280
C386        C  0.24246345  0.39632040  0.76297004     0.35770
H387        H  0.19236642  0.35131415  0.70167710     0.16140
O388        O  0.26735989  0.38240306  0.68034025    -0.60780
H389        H  0.30994967  0.43152203  0.76887461     0.16160
O390        O  0.23582153  0.40872698  0.78853019    -0.60880
H391        H  0.24767209  0.43957134  0.78780900     0.43150
H392        H  0.26788419  0.35584043  0.67900725     0.43110
C393        C  0.13583257  0.28993271  0.88683700    -0.05950
C394        C  0.13613245  0.28060429  0.91505289    -0.33380
C395        C  0.11707942  0.23938903  0.92436358     0.35870
C396        C  0.09583414  0.20514189  0.90570506    -0.06310
C397        C  0.09200639  0.21284719  0.87820338    -0.33280
C398        C  0.10958375  0.25402030  0.86885976     0.35770
H399        H  0.14892321  0.30442430  0.93098750     0.16140
O400        O  0.12035550  0.23312430  0.95186210    -0.60780
H401        H  0.07301274  0.18656346  0.86402436     0.16160
O402        O  0.09532761  0.25803591  0.84358215    -0.60880
H403        H  0.10281819  0.24244186  0.82984279     0.43150
H404        H  0.09732836  0.23534630  0.96109179     0.43110
C405        C  0.09454577  0.40627085  0.90119409    -0.05950
C406        C  0.07181137  0.36216945  0.90066745    -0.33380
C407        C  0.09167420  0.33907556  0.89482082     0.35870
C408        C  0.13615125  0.36007000  0.88996233    -0.06310
C409        C  0.15863319  0.40471266  0.89136269    -0.33280
C410        C  0.13862803  0.42747636  0.89742130     0.35770
H411        H  0.03779833  0.34514460  0.90354301     0.16140
O412        O  0.06631373  0.29618835  0.89216360    -0.60780
H413        H  0.19197680  0.42275548  0.88647427     0.16160
O414        O  0.16243591  0.47063863  0.89797506    -0.60880
H415        H  0.17286563  0.47874170  0.91733203     0.43150
H416        H  0.05333383  0.29080911  0.87344948     0.43110
C417        C  0.20703703  0.36340188  0.88739908    -0.05950
C418        C  0.21717886  0.37113265  0.91604827    -0.33380
C419        C  0.25892788  0.39004468  0.92601102     0.35870
C420        C  0.29267259  0.40431697  0.90733485    -0.06310
C421        C  0.28412218  0.40334178  0.87934022    -0.33280
C422        C  0.24262441  0.38593521  0.86949059     0.35770
H423        H  0.19343595  0.36611996  0.93109375     0.16140
O424        O  0.26611543  0.39421782  0.95404602    -0.60780
H425        H  0.31014344  0.41861157  0.86494072     0.16160
O426        O  0.23840343  0.39728299  0.84356244    -0.60880
H427        H  0.25473537  0.38891860  0.83118585     0.43150
H428        H  0.26745920  0.42090581  0.95966128     0.43110
C429        C  0.15661307  0.33732836  0.84524636    -0.05950
C430        C  0.13286923  0.35159067  0.83122888    -0.33380
C431        C  0.13071863  0.35098562  0.80239964     0.35870
C432        C  0.15663334  0.34066664  0.78607773    -0.06310
C433        C  0.17737308  0.32301348  0.79993742    -0.33280
C434        C  0.17634842  0.31990402  0.82870902     0.35770
H435        H  0.11383806  0.36180823  0.84217343     0.16140
O436        O  0.10143049  0.35866744  0.79088338    -0.60780
H437        H  0.19565056  0.31236905  0.78841061     0.16160
O438        O  0.19758425  0.30271404  0.84079813    -0.60880
H439        H  0.18214984  0.27251360  0.83497332     0.43150
H440        H  0.07390526  0.33191935  0.79216808     0.43110
C441        C  0.20070131  0.10388300  0.65737209    -0.05950
C442        C  0.20885957  0.10530724  0.62908141    -0.33380
C443        C  0.25023006  0.12341017  0.61908003     0.35870
C444        C  0.28565660  0.14330038  0.63778747    -0.06310
C445        C  0.27643451  0.13852792  0.66640553    -0.33280
C446        C  0.23482327  0.11943095  0.67617906     0.35770
H447        H  0.18270315  0.09117179  0.61440265     0.16140
O448        O  0.25457960  0.11726460  0.59139313    -0.60780
H449        H  0.30211222  0.15106623  0.68140637     0.16160
O450        O  0.22817695  0.11800625  0.70419338    -0.60880
H451        H  0.22781767  0.09233519  0.71006795     0.43150
H452        H  0.24239710  0.13180143  0.58142121     0.43110
C453        C  0.39992700  0.30234253  0.65226738    -0.05950
C454        C  0.42047605  0.28577794  0.63682555    -0.33380
C455        C  0.39998378  0.24259706  0.63003857     0.35870
C456        C  0.35770878  0.21429997  0.63906628    -0.06310
C457        C  0.33736032  0.23256769  0.65400046    -0.33280
C458        C  0.35840812  0.27553417  0.66112422     0.35770
H459        H  0.45266137  0.30639668  0.62997013     0.16140
O460        O  0.42171448  0.22828141  0.61445573    -0.60780
H461        H  0.30456546  0.21465189  0.65981675     0.16160
O462        O  0.33754054  0.29134631  0.67619211    -0.60880
H463        H  0.34302314  0.28852417  0.69584640     0.43150
H464        H  0.42360386  0.23924173  0.59566417     0.43110
C465        C  0.39561401  0.09817187  0.65468811    -0.05950
C466        C  0.35422896  0.07610903  0.64406527    -0.33380
C467        C  0.33277298  0.09709109  0.63762597     0.35870
C468        C  0.35261535  0.14157336  0.64189594    -0.06310
C469        C  0.39139226  0.16181261  0.65681720    -0.33280
C470        C  0.41362902  0.14115391  0.66191122     0.35770
H471        H  0.33925458  0.04275363  0.63896749     0.16140
O472        O  0.29435827  0.07440219  0.62434387    -0.60780
H473        H  0.40633211  0.19438144  0.66357949     0.16160
O474        O  0.45314236  0.16352964  0.67387456    -0.60880
H475        H  0.47259316  0.17910101  0.65856089     0.43150
H476        H  0.27372040  0.05864206  0.63907796     0.43110
C477        C  0.28932882  0.14938408  0.99489063    -0.05950
C478        C  0.27246271  0.11531937  0.97498115    -0.33380
C479        C  0.22928792  0.09190146  0.96811747     0.35870
C480        C  0.20120559  0.10276268  0.98004565    -0.06310
C481        C  0.21744385  0.13853132  0.99727445    -0.33280
C482        C  0.26072493  0.16273943  0.00363214     0.35770
H483        H  0.29241107  0.10663324  0.96365306     0.16140
O484        O  0.21491634  0.05811983  0.94989103    -0.60780
H485        H  0.19685260  0.14985312  0.00436250     0.16160
O486        O  0.27490003  0.20237763  0.51421894    -0.60880
H487        H  0.25754845  0.19912528  0.53087140     0.43150
H488        H  0.22113904  0.07032228  0.93122878     0.43110
C489        C  0.36228660  0.21805500  0.99454751    -0.05950
C490        C  0.34716585  0.23027462  0.97198376    -0.33380
C491        C  0.36737553  0.27214191  0.96406079     0.35870
C492        C  0.40349631  0.30299047  0.97848677    -0.06310
C493        C  0.42056814  0.29132015  0.99970278    -0.33280
C494        C  0.40142049  0.24916799  0.50707948     0.35770
H495        H  0.31945323  0.20756898  0.96026196     0.16140
O496        O  0.35113068  0.28276001  0.94236737    -0.60780
H497        H  0.44929932  0.31485546  0.51026657     0.16160
O498        O  0.42062492  0.23900898  0.52714280    -0.60880
H499        H  0.44223112  0.23509797  0.51733735     0.43150
H500        H  0.33093183  0.29003593  0.95085428     0.42950
C501        C  0.35771621  0.14624557  0.99302488    -0.05950
C502        C  0.33835326  0.10327794  0.50026411    -0.33380
C503        C  0.35797455  0.07984392  0.49561660     0.35870
C504        C  0.39789780  0.09848709  0.98308523    -0.06310
C505        C  0.41554875  0.13924851  0.97309547    -0.33280
C506        C  0.39535795  0.16253788  0.97693163     0.35770
H507        H  0.30899785  0.08876086  0.51176510     0.16140
O508        O  0.33876349  0.03949214  0.50493700    -0.60780
H509        H  0.44534780  0.15327260  0.96210877     0.16160
O510        O  0.41339337  0.20090058  0.96478779    -0.60880
H511        H  0.39964336  0.19508810  0.94631301     0.43150
H512        H  0.34799816  0.04243630  0.52452102     0.43110
C513        C  0.34003886  0.17387712  0.53753931    -0.05950
C514        C  0.35789292  0.15359313  0.55186445    -0.33380
C515        C  0.35716657  0.15083172  0.58051654     0.35870
C516        C  0.33770058  0.16849601  0.59696468    -0.06310
C517        C  0.32633564  0.19454078  0.58328108    -0.33280
C518        C  0.33097018  0.20032521  0.55463735     0.35770
H519        H  0.37616517  0.14201284  0.54159879     0.16140
O520        O  0.37813093  0.13278752  0.59155602    -0.60780
H521        H  0.31601426  0.21277369  0.59535453     0.16160
O522        O  0.33666313  0.23753347  0.54486742    -0.60880
H523        H  0.31949236  0.24607587  0.55620692     0.43150
H524        H  0.40845244  0.15523345  0.59216991     0.43110
C525        C  0.33748228  0.67224414  0.00472288    -0.02980
C526        C  0.33340688  0.66661121  0.12905448    -0.02980
C527        C  0.15880385  0.83742571  0.37743201    -0.02980
C528        C  0.16094268  0.84406153  0.25400903    -0.02980
N529        N  0.47234395  0.56482312  0.47934768    -0.06610
N530        N  0.46467909  0.59607382  0.47991663    -0.58730
N531        N  0.48002417  0.98964825  0.01195426    -0.06290
N532        N  0.47172827  0.97423333  0.03707953    -0.60850
N533        N  0.01560970  0.52631629  0.01209658    -0.05880
N534        N  0.03208840  0.53644081  0.03740335    -0.58700
N535        N  0.43663682  0.52835480  0.47998073    -0.05560
N536        N  0.40398757  0.53401775  0.48114215    -0.61210
C537        C  0.42188838  0.57636637  0.48109363     0.95570
C538        C  0.50467146  0.00338740  0.05272155     0.95350
N539        N  0.44481157  0.89922756  0.44562720    -0.06790
N540        N  0.43672297  0.86014055  0.44504785    -0.59300
N541        N  0.39183765  0.94809515  0.44111497    -0.04910
N542        N  0.35191376  0.93828335  0.44193201    -0.60560
N543        N  0.40108540  0.93874672  0.41655097    -0.06820
N544        N  0.36746811  0.92236357  0.40016416    -0.59570
N545        N  0.43653797  0.90950002  0.47022135    -0.04550
N546        N  0.42264327  0.87740032  0.48689589    -0.60640
Mn547      Mn  0.43572588  0.96840380  0.47640688     1.18440
C548        C  0.42359457  0.84718188  0.47094127     0.97650
C549        C  0.33713266  0.92247398  0.41626051     0.98320
N550        N  0.09319395  0.56799108  0.47017966    -0.06840
N551        N  0.12626089  0.58389585  0.48699981    -0.63150
N552        N  0.06033455  0.59792079  0.41590359    -0.05640
N553        N  0.07614856  0.63003518  0.39915084    -0.63820
N554        N  0.05155828  0.60876560  0.44012362    -0.06350
N555        N  0.06152424  0.64850964  0.44037320    -0.63420
N556        N  0.10241600  0.55713157  0.44611849    -0.05240
N557        N  0.14173995  0.56503782  0.44622334    -0.64110
Mn558      Mn  0.03365473  0.56775822  0.47597708     1.10660
C559        C  0.15614423  0.58136032  0.47190495     0.98870
C560        C  0.07652948  0.66129334  0.41467171     0.98950
N561        N  0.47932642  0.98206297  0.37405544    -0.06360
N562        N  0.46280092  0.97275062  0.34874413    -0.61730
N563        N  0.05788121  0.97817796  0.40611160    -0.05670
N564        N  0.09004908  0.97177573  0.40479674    -0.58460
N565        N  0.02181102  0.94211216  0.40592568    -0.06990
N566        N  0.02866957  0.91036782  0.40456722    -0.61300
N567        N  0.01553002  0.51821392  0.37434147    -0.05970
N568        N  0.02406938  0.53415379  0.34935880    -0.58480
Mn569      Mn  0.46112448  0.93993806  0.40991938     1.20190
Mn570      Mn  0.05963646  0.53832635  0.41010554     1.10090
Cl571      Cl  0.49748189  0.50365423  0.44306918    -0.86450
C572        C  0.49074907  0.50583383  0.33361155     0.95880
C573        C  0.07142526  0.92931332  0.40387705     0.95680
N574        N  0.40124533  0.93985988  0.21799940    -0.06610
N575        N  0.36784260  0.92455846  0.23433989    -0.58730
N576        N  0.43639441  0.91014940  0.16279010    -0.06290
N577        N  0.42062365  0.87706332  0.14554065    -0.60850
N578        N  0.44589807  0.90070647  0.18671356    -0.05880
N579        N  0.43709865  0.86135167  0.18613783    -0.58700
N580        N  0.39197577  0.94909091  0.19391742    -0.05560
N581        N  0.35238465  0.94018533  0.19330428    -0.61210
C582        C  0.33774004  0.92514040  0.21859674     0.95570
C583        C  0.42217254  0.84724998  0.16026411     0.95350
N584        N  0.01527483  0.52711244  0.12471974    -0.06790
N585        N  0.03180156  0.53701070  0.09965312    -0.59300
N586        N  0.43508201  0.52851918  0.15711851    -0.04910
N587        N  0.40226496  0.53394091  0.15587428    -0.60560
N588        N  0.47058752  0.56514509  0.15855541    -0.06820
N589        N  0.46269199  0.59621089  0.15845694    -0.59570
N590        N  0.47987424  0.99023716  0.12377667    -0.04550
N591        N  0.47180798  0.97445924  0.09816042    -0.60640
Mn592      Mn  0.43534622  0.96901294  0.15884837     1.18440
C593        C  0.50465536  0.00359712  0.08333927     0.97650
C594        C  0.41991917  0.57635229  0.15685205     0.98320
N595        N  0.02416933  0.94609702  0.22697459    -0.06840
N596        N  0.03272758  0.91540133  0.22673992    -0.63150
N597        N  0.01482868  0.52064582  0.26238887    -0.05640
N598        N  0.02324959  0.53582929  0.28816457    -0.63820
N599        N  0.47936082  0.98381760  0.26135371    -0.06350
N600        N  0.46315300  0.97342059  0.28647064    -0.63420
N601        N  0.05943406  0.98297456  0.22853078    -0.05240
N602        N  0.09259801  0.97820826  0.22964040    -0.64110
Mn603      Mn  0.46210889  0.94194175  0.22382429     1.10660
C604        C  0.07557895  0.93597451  0.22844731     0.98870
C605        C  0.49053604  0.50641204  0.30296877     0.98950
N606        N  0.04764879  0.61008327  0.19948801    -0.06360
N607        N  0.05524974  0.64904735  0.20044614    -0.61730
N608        N  0.10271479  0.56250797  0.19187953    -0.05670
N609        N  0.14240265  0.57149718  0.19204390    -0.58460
N610        N  0.09296862  0.57159671  0.16793268    -0.06990
N611        N  0.12595632  0.58687756  0.15129295    -0.61300
N612        N  0.05767180  0.60074082  0.22326229    -0.05970
N613        N  0.07297483  0.63357290  0.24067040    -0.58480
Mn614      Mn  0.03218524  0.56915607  0.16215241     1.20190
Mn615      Mn  0.05917071  0.54222705  0.22707885     1.10090
Cl616      Cl  0.49718528  0.50557444  0.19298868    -0.86450
C617        C  0.07022642  0.66303525  0.22634571     0.95880
C618        C  0.15650102  0.58647152  0.16659379     0.95680
C619        C  0.13811460  0.79667577  0.24440676    -0.05950
C620        C  0.09372312  0.77174003  0.24842019    -0.33380
C621        C  0.07112195  0.72832300  0.24260409     0.35870
C622        C  0.09275429  0.70793609  0.23424900    -0.06310
C623        C  0.13674715  0.73101676  0.23212047    -0.33280
C624        C  0.15966507  0.77463037  0.23728146     0.35770
H625        H  0.07621403  0.78626254  0.25587856     0.16140
O626        O  0.02789248  0.70609657  0.24521976    -0.60780
H627        H  0.15367926  0.71498321  0.22652933     0.16160
O628        O  0.20300985  0.79388386  0.23812781    -0.60880
H629        H  0.21171782  0.79070857  0.21914139     0.43150
H630        H  0.02269819  0.69689933  0.26465859     0.43110
C631        C  0.14164016  0.86946950  0.24207248    -0.05950
C632        C  0.15772759  0.91113832  0.25246921    -0.33380
C633        C  0.13745733  0.93351355  0.24735980     0.35870
C634        C  0.10059059  0.91509700  0.23094065    -0.06310
C635        C  0.08755416  0.87626900  0.21736560    -0.33280
C636        C  0.10908200  0.85451993  0.22161199     0.35770
H637        H  0.18409453  0.92528490  0.26677334     0.16140
O638        O  0.15257522  0.97233731  0.26004819    -0.60780
H639        H  0.06096267  0.86303646  0.20305656     0.16160
O640        O  0.09855498  0.81976704  0.20505192    -0.60880
H641        H  0.11752254  0.83063837  0.18884703     0.43150
H642        H  0.13883288  0.96656805  0.27844474     0.43110
C643        C  0.20811138  0.86951040  0.24489402    -0.05950
C644        C  0.21770196  0.86864109  0.21662376    -0.33380
C645        C  0.25969585  0.88685312  0.20768639     0.35870
C646        C  0.29330606  0.90780092  0.22690286    -0.06310
C647        C  0.28431754  0.91293884  0.25430302    -0.33280
C648        C  0.24246235  0.89631975  0.26297018     0.35770
H649        H  0.19236548  0.85131326  0.20167720     0.16140
O650        O  0.26735906  0.88240245  0.18034046    -0.60780
H651        H  0.30994850  0.93152165  0.26887483     0.16160
O652        O  0.23582037  0.90872632  0.28853034    -0.60880
H653        H  0.24767082  0.93957067  0.28780913     0.43150
H654        H  0.26788355  0.85583992  0.17900751     0.43110
C655        C  0.13583847  0.78993759  0.38683722    -0.05950
C656        C  0.13614361  0.78060874  0.41505247    -0.33380
C657        C  0.11708959  0.73939326  0.42436291     0.35870
C658        C  0.09583948  0.70514645  0.40570476    -0.06310
C659        C  0.09200806  0.71285225  0.37820387    -0.33280
C660        C  0.10958577  0.75402557  0.36886065     0.35770
H661        H  0.14894096  0.80442853  0.43098698     0.16140
O662        O  0.12036999  0.73312789  0.45186069    -0.60780
H663        H  0.07301140  0.68656886  0.36402533     0.16160
O664        O  0.09532721  0.75804212  0.34358423    -0.60880
H665        H  0.10281620  0.74244820  0.32984370     0.43150
H666        H  0.09734571  0.73535196  0.46109296     0.43110
C667        C  0.09455206  0.90627650  0.40119428    -0.05950
C668        C  0.07181825  0.86217515  0.40067003    -0.33380
C669        C  0.09168090  0.83908106  0.39482354     0.35870
C670        C  0.13615725  0.86007538  0.38996247    -0.06310
C671        C  0.15863875  0.90471814  0.39136046    -0.33280
C672        C  0.13863383  0.92748206  0.39741920     0.35770
H673        H  0.03780561  0.84515029  0.40354755     0.16140
O674        O  0.06632067  0.79619352  0.39216930    -0.60780
H675        H  0.19198169  0.92276059  0.38647010     0.16160
O676        O  0.16244120  0.97064433  0.39797073    -0.60880
H677        H  0.17287313  0.97874979  0.41732712     0.43150
H678        H  0.05333611  0.79081135  0.37345651     0.43110
C679        C  0.20704260  0.86340708  0.38739872    -0.05950
C680        C  0.21718439  0.87114081  0.41604781    -0.33380
C681        C  0.25893327  0.89005266  0.42601073     0.35870
C682        C  0.29267791  0.90432221  0.40733466    -0.06310
C683        C  0.28412764  0.90334468  0.37933976    -0.33280
C684        C  0.24262999  0.88593796  0.36948989     0.35770
H685        H  0.19344102  0.86612950  0.43109281     0.16140
O686        O  0.26612075  0.89422807  0.45404577    -0.60780
H687        H  0.31014896  0.91861254  0.36494010     0.16160
O688        O  0.23840933  0.89728359  0.34356097    -0.60880
H689        H  0.25474061  0.88891750  0.33118506     0.43150
H690        H  0.26746565  0.92091705  0.45965966     0.43110
C691        C  0.15661743  0.83733223  0.34524650    -0.05950
C692        C  0.13287259  0.85159361  0.33122921    -0.33380
C693        C  0.13071968  0.85098617  0.30240001     0.35870
C694        C  0.15663301  0.84066574  0.28607782    -0.06310
C695        C  0.17737323  0.82301301  0.29993743    -0.33280
C696        C  0.17635086  0.81990594  0.32870913     0.35770
H697        H  0.11384202  0.86181173  0.34217397     0.16140
O698        O  0.10143060  0.85866699  0.29088413    -0.60780
H699        H  0.19564957  0.81236739  0.28841044     0.16160
O700        O  0.19758683  0.80271605  0.34079815    -0.60880
H701        H  0.18215043  0.77251490  0.33497508     0.43150
H702        H  0.07390579  0.83191853  0.29216914     0.43110
C703        C  0.20069885  0.60387785  0.15737300    -0.05950
C704        C  0.20885622  0.60529767  0.12908245    -0.33380
C705        C  0.25022635  0.62339971  0.11908092     0.35870
C706        C  0.28565332  0.64329456  0.13778792    -0.06310
C707        C  0.27643218  0.63852492  0.16640611    -0.33280
C708        C  0.23482113  0.61942854  0.17617991     0.35770
H709        H  0.18269936  0.59115890  0.11440405     0.16140
O710        O  0.25457533  0.61724714  0.09139498    -0.60780
H711        H  0.30211036  0.65106561  0.18140671     0.16160
O712        O  0.22817526  0.61800737  0.20419421    -0.60880
H713        H  0.22781657  0.59233738  0.21007060     0.43150
H714        H  0.24238879  0.63177766  0.08142000     0.43110
C715        C  0.39992263  0.80233869  0.15226775    -0.05950
C716        C  0.42047113  0.78577470  0.13682462    -0.33380
C717        C  0.39997881  0.74259396  0.13003688     0.35870
C718        C  0.35770429  0.71429620  0.13906507    -0.06310
C719        C  0.33735586  0.73256351  0.15399980    -0.33280
C720        C  0.35840380  0.77552979  0.16112452     0.35770
H721        H  0.45265618  0.80639381  0.12996886     0.16140
O722        O  0.42170935  0.72827915  0.11445313    -0.60780
H723        H  0.30456098  0.71464751  0.15981598     0.16160
O724        O  0.33753632  0.79134124  0.17619326    -0.60880
H725        H  0.34301926  0.78851834  0.19584733     0.43150
H726        H  0.42359718  0.73923927  0.09566169     0.43110
C727        C  0.39561378  0.59817029  0.15468687    -0.05950
C728        C  0.35422886  0.57610692  0.14406399    -0.33380
C729        C  0.33277223  0.59708819  0.13762467     0.35870
C730        C  0.35261344  0.64157033  0.14189495    -0.06310
C731        C  0.39139091  0.66181053  0.15681561    -0.33280
C732        C  0.41362843  0.64115247  0.16190956     0.35770
H733        H  0.33925490  0.54275152  0.13896632     0.16140
O734        O  0.29435755  0.57439842  0.12434268    -0.60780
H735        H  0.40633042  0.69437952  0.16357750     0.16160
O736        O  0.45314201  0.66352886  0.17387249    -0.60880
H737        H  0.47259241  0.67909959  0.15855850     0.43150
H738        H  0.27372000  0.55863763  0.13907678     0.43110
C739        C  0.28933271  0.64938637  0.49489396    -0.05950
C740        C  0.27247090  0.61533174  0.47497692    -0.33380
C741        C  0.22929673  0.59191432  0.46811092     0.35870
C742        C  0.20121043  0.60276578  0.48004510    -0.06310
C743        C  0.21744390  0.63852314  0.49728415    -0.33280
C744        C  0.26072338  0.66272982  0.50364529     0.35770
H745        H  0.29242276  0.60665361  0.46364525     0.16140
O746        O  0.21492975  0.55814270  0.44987633    -0.60780
H747        H  0.19684971  0.64983712  0.50438019     0.16160
O748        O  0.27491040  0.70239990  0.01418585    -0.60880
H749        H  0.25754936  0.69917220  0.03082888     0.43150
H750        H  0.22115345  0.57035556  0.43121722     0.43110
C751        C  0.36229008  0.71805894  0.49454754    -0.05950
C752        C  0.34715761  0.73028412  0.47199309    -0.33380
C753        C  0.36736826  0.77215197  0.46407121     0.35870
C754        C  0.40350084  0.80299588  0.47848939    -0.06310
C755        C  0.42058176  0.79132057  0.49969690    -0.33280
C756        C  0.40140870  0.74916839  0.00708646     0.35770
H757        H  0.31943590  0.70758283  0.46027705     0.16140
O758        O  0.35111375  0.78277524  0.44238604    -0.60780
H759        H  0.44927800  0.81485842  0.01027810     0.16160
O760        O  0.42060803  0.73901474  0.02715643    -0.60880
H761        H  0.44220672  0.73508732  0.01735491     0.43150
H762        H  0.33092435  0.79005678  0.45088193     0.42950
C763        C  0.35771974  0.64624921  0.49302423    -0.05950
C764        C  0.33835064  0.60327467  0.00026582    -0.33380
C765        C  0.35797163  0.57984046  0.99561840     0.35870
C766        C  0.39790076  0.59849075  0.48308326    -0.06310
C767        C  0.41555012  0.63925123  0.47309207    -0.33280
C768        C  0.39535859  0.66253996  0.47692821     0.35770
H769        H  0.30899526  0.58875760  0.01176685     0.16140
O770        O  0.33876012  0.53948855  0.00493861    -0.60780
H771        H  0.44534782  0.65327457  0.46210384     0.16160
O772        O  0.41338870  0.70089916  0.46478006    -0.60880
H773        H  0.39962711  0.69508243  0.44630901     0.43150
H774        H  0.34799462  0.54243238  0.02452263     0.43110
C775        C  0.34002888  0.67387007  0.03753866    -0.05950
C776        C  0.35788920  0.65359187  0.05186396    -0.33380
C777        C  0.35716374  0.65083031  0.08051594     0.35870
C778        C  0.33769438  0.66849059  0.09696432    -0.06310
C779        C  0.32632117  0.69452901  0.08328092    -0.33280
C780        C  0.33095024  0.70031093  0.05463675     0.35770
H781        H  0.37616629  0.64201707  0.04159835     0.16140
O782        O  0.37813250  0.63279043  0.09155521    -0.60780
H783        H  0.31599649  0.71275870  0.09535493     0.16160
O784        O  0.33663428  0.73751556  0.04486739    -0.60880
H785        H  0.31945675  0.74605035  0.05620610     0.43150
H786        H  0.40845351  0.65523786  0.09216676     0.43110
C787        C  0.33748735  0.67224841  0.50472370    -0.02980
C788        C  0.33341059  0.66661554  0.62905487    -0.02980
C789        C  0.15879838  0.83742088  0.87743192    -0.02980
C790        C  0.16094364  0.84406289  0.75400894    -0.02980
N791        N  0.47233963  0.56481827  0.97934831    -0.06610
N792        N  0.46467525  0.59606923  0.97991791    -0.58730
N793        N  0.48002894  0.98965354  0.51195419    -0.06290
N794        N  0.47173276  0.97423856  0.53707942    -0.60850
N795        N  0.01561446  0.52632156  0.51209654    -0.05880
N796        N  0.03209281  0.53644613  0.53740344    -0.58700
N797        N  0.43663234  0.52835011  0.97998121    -0.05560
N798        N  0.40398335  0.53401342  0.98114312    -0.61210
C799        C  0.42188466  0.57636213  0.98109510     0.95570
C800        C  0.50467565  0.00339261  0.55272156     0.95350
N801        N  0.44480561  0.89922316  0.94562569    -0.06790
N802        N  0.43671615  0.86013590  0.94504543    -0.59300
N803        N  0.39183287  0.94809125  0.94111467    -0.04910
N804        N  0.35190869  0.93827849  0.94193200    -0.60560
N805        N  0.40108077  0.93874378  0.91655039    -0.06820
N806        N  0.36746326  0.92236025  0.90016375    -0.59570
N807        N  0.43653262  0.90949507  0.97022022    -0.04550
N808        N  0.42263764  0.87739470  0.98689421    -0.60640
Mn809      Mn  0.43572102  0.96839901  0.97640673     1.18440
C810        C  0.42358753  0.84717630  0.97093863     0.97650
C811        C  0.33712755  0.92246950  0.91626045     0.98320
N812        N  0.09318920  0.56798663  0.97018061    -0.06840
N813        N  0.12625619  0.58389224  0.98700079    -0.63150
N814        N  0.06033084  0.59791665  0.91590442    -0.05640
N815        N  0.07614464  0.63003095  0.89915161    -0.63820
N816        N  0.05155397  0.60876125  0.94012430    -0.06350
N817        N  0.06151936  0.64850511  0.94037374    -0.63420
N818        N  0.10241118  0.55712641  0.94611967    -0.05240
N819        N  0.14173509  0.56503269  0.94622478    -0.64110
Mn820      Mn  0.03365008  0.56775344  0.97597758     1.10660
C821        C  0.15613929  0.58135596  0.97190628     0.98870
C822        C  0.07652490  0.66128892  0.91467229     0.98950
N823        N  0.47932309  0.98206074  0.87405506    -0.06360
N824        N  0.46279862  0.97274932  0.84874344    -0.61730
N825        N  0.05787630  0.97817337  0.90611189    -0.05670
N826        N  0.09004378  0.97177055  0.90479727    -0.58460
N827        N  0.02180578  0.94210788  0.90592516    -0.06990
N828        N  0.02866372  0.91036313  0.90456641    -0.61300
N829        N  0.01552713  0.51821126  0.87434170    -0.05970
N830        N  0.02406777  0.53415183  0.84935925    -0.58480
Mn831      Mn  0.46111967  0.93993474  0.90991858     1.20190
Mn832      Mn  0.05963242  0.53832215  0.91010625     1.10090
Cl833      Cl  0.49747725  0.50364991  0.94306923    -0.86450
C834        C  0.49074784  0.50583275  0.83361139     0.95880
C835        C  0.07141939  0.92930809  0.90387690     0.95680
N836        N  0.40124680  0.93986125  0.71799888    -0.06610
N837        N  0.36784403  0.92455942  0.73433938    -0.58730
N838        N  0.43639720  0.91015253  0.66278942    -0.06290
N839        N  0.42062701  0.87706659  0.64553990    -0.60850
N840        N  0.44590118  0.90070976  0.68671281    -0.05880
N841        N  0.43710279  0.86135537  0.68613698    -0.58700
N842        N  0.39197707  0.94909229  0.69391696    -0.05560
N843        N  0.35238578  0.94018630  0.69330389    -0.61210
C844        C  0.33774123  0.92514110  0.71859633     0.95570
C845        C  0.42217687  0.84725370  0.66026328     0.95350
N846        N  0.01527695  0.52711633  0.62471987    -0.06790
N847        N  0.03180434  0.53701523  0.59965345    -0.59300
N848        N  0.43508296  0.52852122  0.65711862    -0.04910
N849        N  0.40226564  0.53394259  0.65587454    -0.60560
N850        N  0.47058829  0.56514726  0.65855588    -0.06820
N851        N  0.46269236  0.59621278  0.65845778    -0.59570
N852        N  0.47987656  0.99024090  0.62377641    -0.04550
N853        N  0.47181107  0.97446350  0.59816002    -0.60640
Mn854      Mn  0.43534800  0.96901547  0.65884800     1.18440
C855        C  0.50465875  0.00360187  0.58333927     0.97650
C856        C  0.41991951  0.57635391  0.65685278     0.98320
N857        N  0.02417142  0.94609935  0.72697403    -0.06840
N858        N  0.03272966  0.91540366  0.72673936    -0.63150
N859        N  0.01482997  0.52064689  0.76238896    -0.05640
N860        N  0.02325021  0.53582958  0.78816489    -0.63820
N861        N  0.47936199  0.98381879  0.76135330    -0.06350
N862        N  0.46315342  0.97342107  0.78646998    -0.63420
N863        N  0.05943615  0.98297687  0.72853033    -0.05240
N864        N  0.09260009  0.97821055  0.72964008    -0.64110
Mn865      Mn  0.46211085  0.94194387  0.72382369     1.10660
C866        C  0.07558101  0.93597680  0.72844690     0.98870
C867        C  0.49053608  0.50641195  0.80296859     0.98950
N868        N  0.04764934  0.61008513  0.69948870    -0.06360
N869        N  0.05524966  0.64904895  0.70044716    -0.61730
N870        N  0.10271691  0.56251123  0.69187926    -0.05670
N871        N  0.14240493  0.57150074  0.69204322    -0.58460
N872        N  0.09297045  0.57160038  0.66793265    -0.06990
N873        N  0.12595804  0.58688175  0.65129274    -0.61300
N874        N  0.05767277  0.60074259  0.72326280    -0.05970
N875        N  0.07297552  0.63357441  0.74067109    -0.58480
Mn876      Mn  0.03218652  0.56915898  0.66215277     1.20190
Mn877      Mn  0.05917246  0.54222920  0.72707884     1.10090
Cl878      Cl  0.49718698  0.50557689  0.69298854    -0.86450
C879        C  0.07022643  0.66303662  0.72634672     0.95880
C880        C  0.15650312  0.58647568  0.66659313     0.95680
C881        C  0.13811526  0.79667720  0.74440661    -0.05950
C882        C  0.09372366  0.77174190  0.74841973    -0.33380
C883        C  0.07112226  0.72832477  0.74260414     0.35870
C884        C  0.09275447  0.70793738  0.73424991    -0.06310
C885        C  0.13674735  0.73101765  0.73212156    -0.33280
C886        C  0.15966549  0.77463135  0.73728196     0.35770
H887        H  0.07621466  0.78626476  0.75587759     0.16140
O888        O  0.02789274  0.70609872  0.74521947    -0.60780
H889        H  0.15367928  0.71498375  0.72653088     0.16160
O890        O  0.20301024  0.79388458  0.73812833    -0.60880
H891        H  0.21171813  0.79070900  0.71914194     0.43150
H892        H  0.02269802  0.69690197  0.76465841     0.43110
C893        C  0.14164157  0.86947122  0.74207236    -0.05950
C894        C  0.15772883  0.91113983  0.75246946    -0.33380
C895        C  0.13745879  0.93351527  0.74735996     0.35870
C896        C  0.10059252  0.91509917  0.73094036    -0.06310
C897        C  0.08755634  0.87627141  0.71736504    -0.33280
C898        C  0.10908395  0.85452214  0.72161153     0.35770
H899        H  0.18409536  0.92528598  0.76677392     0.16140
O900        O  0.15257637  0.97233874  0.76004871    -0.60780
H901        H  0.06096520  0.86303921  0.70305571     0.16160
O902        O  0.09855717  0.81976947  0.70505128    -0.60880
H903        H  0.11752453  0.83064112  0.68884632     0.43150
H904        H  0.13883340  0.96656905  0.77844507     0.43110
C905        C  0.20811240  0.86951135  0.74489392    -0.05950
C906        C  0.21770296  0.86864186  0.71662365    -0.33380
C907        C  0.25969683  0.88685371  0.70768622     0.35870
C908        C  0.29330716  0.90780146  0.72690261    -0.06310
C909        C  0.28431867  0.91293934  0.75430283    -0.33280
C910        C  0.24246346  0.89632042  0.76297004     0.35770
H911        H  0.19236643  0.85131412  0.70167711     0.16140
O912        O  0.26735990  0.88240302  0.68034026    -0.60780
H913        H  0.30994968  0.93152205  0.76887462     0.16160
O914        O  0.23582153  0.90872700  0.78853019    -0.60880
H915        H  0.24767211  0.93957137  0.78780900     0.43150
H916        H  0.26788421  0.85584039  0.67900727     0.43110
C917        C  0.13583256  0.78993271  0.88683700    -0.05950
C918        C  0.13613235  0.78060429  0.91505290    -0.33380
C919        C  0.11707934  0.73938903  0.92436360     0.35870
C920        C  0.09583415  0.70514189  0.90570506    -0.06310
C921        C  0.09200645  0.71284719  0.87820337    -0.33280
C922        C  0.10958381  0.75402029  0.86885975     0.35770
H923        H  0.14892300  0.80442431  0.93098751     0.16140
O924        O  0.12035534  0.73312431  0.95186212    -0.60780
H925        H  0.07301286  0.68656345  0.86402435     0.16160
O926        O  0.09532770  0.75803589  0.84358213    -0.60880
H927        H  0.10281831  0.74244185  0.82984278     0.43150
H928        H  0.09732814  0.73534627  0.96109177     0.43110
C929        C  0.09454577  0.90627085  0.90119409    -0.05950
C930        C  0.07181137  0.86216945  0.90066745    -0.33380
C931        C  0.09167419  0.83907556  0.89482082     0.35870
C932        C  0.13615125  0.86007000  0.88996233    -0.06310
C933        C  0.15863319  0.90471266  0.89136269    -0.33280
C934        C  0.13862803  0.92747636  0.89742130     0.35770
H935        H  0.03779833  0.84514459  0.90354301     0.16140
O936        O  0.06631372  0.79618835  0.89216358    -0.60780
H937        H  0.19197680  0.92275548  0.88647428     0.16160
O938        O  0.16243590  0.97063863  0.89797506    -0.60880
H939        H  0.17286563  0.97874170  0.91733202     0.43150
H940        H  0.05333388  0.79080912  0.87344945     0.43110
C941        C  0.20703703  0.86340188  0.88739909    -0.05950
C942        C  0.21717886  0.87113260  0.91604828    -0.33380
C943        C  0.25892787  0.89004462  0.92601103     0.35870
C944        C  0.29267259  0.90431696  0.90733486    -0.06310
C945        C  0.28412217  0.90334182  0.87934024    -0.33280
C946        C  0.24262441  0.88593525  0.86949061     0.35770
H947        H  0.19343595  0.86611988  0.93109378     0.16140
O948        O  0.26611543  0.89421772  0.95404603    -0.60780
H949        H  0.31014344  0.91861164  0.86494074     0.16160
O950        O  0.23840342  0.89728307  0.84356247    -0.60880
H951        H  0.25473537  0.88891872  0.83118587     0.43150
H952        H  0.26745917  0.92090569  0.95966132     0.43110
C953        C  0.15661308  0.83732837  0.84524636    -0.05950
C954        C  0.13286921  0.85159063  0.83122888    -0.33380
C955        C  0.13071861  0.85098557  0.80239964     0.35870
C956        C  0.15663335  0.84066663  0.78607773    -0.06310
C957        C  0.17737313  0.82301351  0.79993743    -0.33280
C958        C  0.17634847  0.81990406  0.82870903     0.35770
H959        H  0.11383802  0.86180817  0.84217343     0.16140
O960        O  0.10143043  0.85866735  0.79088337    -0.60780
H961        H  0.19565062  0.81236910  0.78841063     0.16160
O962        O  0.19758433  0.80271411  0.84079814    -0.60880
H963        H  0.18214994  0.77251367  0.83497334     0.43150
H964        H  0.07390521  0.83191924  0.79216810     0.43110
C965        C  0.20070130  0.60388299  0.65737209    -0.05950
C966        C  0.20885956  0.60530722  0.62908140    -0.33380
C967        C  0.25023005  0.62341014  0.61908002     0.35870
C968        C  0.28565658  0.64330037  0.63778747    -0.06310
C969        C  0.27643450  0.63852792  0.66640552    -0.33280
C970        C  0.23482326  0.61943095  0.67617905     0.35770
H971        H  0.18270314  0.59117175  0.61440264     0.16140
O972        O  0.25457958  0.61726454  0.59139313    -0.60780
H973        H  0.30211221  0.65106624  0.68140637     0.16160
O974        O  0.22817694  0.61800627  0.70419337    -0.60880
H975        H  0.22781766  0.59233521  0.71006795     0.43150
H976        H  0.24239707  0.63180136  0.58142120     0.43110
C977        C  0.39992699  0.80234252  0.65226738    -0.05950
C978        C  0.42047605  0.78577792  0.63682556    -0.33380
C979        C  0.39998377  0.74259705  0.63003858     0.35870
C980        C  0.35770877  0.71429996  0.63906628    -0.06310
C981        C  0.33736029  0.73256768  0.65400044    -0.33280
C982        C  0.35840810  0.77553416  0.66112421     0.35770
H983        H  0.45266138  0.80639667  0.62997016     0.16140
O984        O  0.42171447  0.72828140  0.61445575    -0.60780
H985        H  0.30456543  0.71465189  0.65981672     0.16160
O986        O  0.33754051  0.79134631  0.67619208    -0.60880
H987        H  0.34302310  0.78852417  0.69584638     0.43150
H988        H  0.42360387  0.73924172  0.59566419     0.43110
C989        C  0.39561399  0.59817186  0.65468811    -0.05950
C990        C  0.35422895  0.57610903  0.64406525    -0.33380
C991        C  0.33277298  0.59709108  0.63762595     0.35870
C992        C  0.35261533  0.64157335  0.64189593    -0.06310
C993        C  0.39139222  0.66181259  0.65681722    -0.33280
C994        C  0.41362899  0.64115390  0.66191124     0.35770
H995        H  0.33925459  0.54275363  0.63896745     0.16140
O996        O  0.29435827  0.57440219  0.62434383    -0.60780
H997        H  0.40633206  0.69438142  0.66357952     0.16160
O998        O  0.45314231  0.66352961  0.67387460    -0.60880
H999        H  0.47259313  0.67910101  0.65856095     0.43150
H1000       H  0.27372040  0.55864205  0.63907791     0.43110
C1001       C  0.28932882  0.64938408  0.99489063    -0.05950
C1002       C  0.27246271  0.61531937  0.97498115    -0.33380
C1003       C  0.22928793  0.59190146  0.96811747     0.35870
C1004       C  0.20120558  0.60276267  0.98004565    -0.06310
C1005       C  0.21744384  0.63853130  0.99727446    -0.33280
C1006       C  0.26072492  0.66273941  0.00363216     0.35770
H1007       H  0.29241108  0.60663325  0.96365305     0.16140
O1008       O  0.21491634  0.55811984  0.94989102    -0.60780
H1009       H  0.19685259  0.64985309  0.00436253     0.16160
O1010       O  0.27490010  0.70237775  0.51421880    -0.60880
H1011       H  0.25754848  0.69912550  0.53087122     0.43150
H1012       H  0.22113905  0.57032231  0.93122877     0.43110
C1013       C  0.36228660  0.71805500  0.99454751    -0.05950
C1014       C  0.34716583  0.73027463  0.97198377    -0.33380
C1015       C  0.36737551  0.77214192  0.96406080     0.35870
C1016       C  0.40349631  0.80299047  0.97848678    -0.06310
C1017       C  0.42056815  0.79132014  0.99970278    -0.33280
C1018       C  0.40142047  0.74916801  0.50707951     0.35770
H1019       H  0.31945320  0.70756900  0.96026198     0.16140
O1020       O  0.35113065  0.78276003  0.94236740    -0.60780
H1021       H  0.44929926  0.81485549  0.51026662     0.16160
O1022       O  0.42062488  0.73900902  0.52714285    -0.60880
H1023       H  0.44223105  0.73509795  0.51733742     0.43150
H1024       H  0.33093181  0.79003596  0.95085433     0.42950
C1025       C  0.35771621  0.64624556  0.99302488    -0.05950
C1026       C  0.33835328  0.60327795  0.50026413    -0.33380
C1027       C  0.35797457  0.57984393  0.49561662     0.35870
C1028       C  0.39789780  0.59848709  0.98308523    -0.06310
C1029       C  0.41554875  0.63924851  0.97309546    -0.33280
C1030       C  0.39535794  0.66253787  0.97693163     0.35770
H1031       H  0.30899787  0.58876087  0.51176511     0.16140
O1032       O  0.33876351  0.53949216  0.50493702    -0.60780
H1033       H  0.44534779  0.65327260  0.96210876     0.16160
O1034       O  0.41339336  0.70090057  0.96478777    -0.60880
H1035       H  0.39964333  0.69508808  0.94631300     0.43150
H1036       H  0.34799819  0.54243632  0.52452103     0.43110
C1037       C  0.34003885  0.67387711  0.53753930    -0.05950
C1038       C  0.35789293  0.65359316  0.55186445    -0.33380
C1039       C  0.35716659  0.65083174  0.58051654     0.35870
C1040       C  0.33770056  0.66849601  0.59696468    -0.06310
C1041       C  0.32633559  0.69454075  0.58328107    -0.33280
C1042       C  0.33097012  0.70032518  0.55463734     0.35770
H1043       H  0.37616521  0.64201289  0.54159879     0.16140
O1044       O  0.37813097  0.63278757  0.59155602    -0.60780
H1045       H  0.31601420  0.71277364  0.59535453     0.16160
O1046       O  0.33666304  0.73753342  0.54486741    -0.60880
H1047       H  0.31949224  0.74607578  0.55620691     0.43150
H1048       H  0.40845248  0.65523352  0.59216990     0.43110
C1049       C  0.83748228  0.17224415  0.00472288    -0.02980
C1050       C  0.83340688  0.16661121  0.12905449    -0.02980
C1051       C  0.65880386  0.33742571  0.37743201    -0.02980
C1052       C  0.66094267  0.34406153  0.25400903    -0.02980
N1053       N  0.97234395  0.06482312  0.47934769    -0.06610
N1054       N  0.96467909  0.09607382  0.47991664    -0.58730
N1055       N  0.98002417  0.48964825  0.01195425    -0.06290
N1056       N  0.97172826  0.47423332  0.03707953    -0.60850
N1057       N  0.51560971  0.02631629  0.01209659    -0.05880
N1058       N  0.53208841  0.03644082  0.03740336    -0.58700
N1059       N  0.93663682  0.02835480  0.47998073    -0.05560
N1060       N  0.90398757  0.03401775  0.48114216    -0.61210
C1061       C  0.92188838  0.07636637  0.48109363     0.95570
C1062       C  0.00467145  0.50338739  0.05272154     0.95350
N1063       N  0.94481157  0.39922756  0.44562719    -0.06790
N1064       N  0.93672297  0.36014054  0.44504784    -0.59300
N1065       N  0.89183766  0.44809515  0.44111496    -0.04910
N1066       N  0.85191377  0.43828335  0.44193200    -0.60560
N1067       N  0.90108540  0.43874672  0.41655096    -0.06820
N1068       N  0.86746812  0.42236357  0.40016415    -0.59570
N1069       N  0.93653797  0.40950001  0.47022134    -0.04550
N1070       N  0.92264327  0.37740031  0.48689588    -0.60640
Mn1071     Mn  0.93572589  0.46840379  0.47640688     1.18440
C1072       C  0.92359458  0.34718188  0.47094126     0.97650
C1073       C  0.83713267  0.42247398  0.41626050     0.98320
N1074       N  0.59319395  0.06799109  0.47017966    -0.06840
N1075       N  0.62626089  0.08389586  0.48699981    -0.63150
N1076       N  0.56033454  0.09792079  0.41590360    -0.05640
N1077       N  0.57614855  0.13003519  0.39915084    -0.63820
N1078       N  0.55155827  0.10876561  0.44012362    -0.06350
N1079       N  0.56152424  0.14850965  0.44037320    -0.63420
N1080       N  0.60241599  0.05713158  0.44611849    -0.05240
N1081       N  0.64173994  0.06503782  0.44622334    -0.64110
Mn1082     Mn  0.53365472  0.06775823  0.47597709     1.10660
C1083       C  0.65614423  0.08136033  0.47190496     0.98870
C1084       C  0.57652947  0.16129334  0.41467171     0.98950
N1085       N  0.97932643  0.48206297  0.37405544    -0.06360
N1086       N  0.96280093  0.47275062  0.34874412    -0.61730
N1087       N  0.55788122  0.47817796  0.40611160    -0.05670
N1088       N  0.59004909  0.47177573  0.40479674    -0.58460
N1089       N  0.52181103  0.44211216  0.40592568    -0.06990
N1090       N  0.52866958  0.41036782  0.40456723    -0.61300
N1091       N  0.51553001  0.01821392  0.37434148    -0.05970
N1092       N  0.52406937  0.03415379  0.34935881    -0.58480
Mn1093     Mn  0.96112449  0.43993805  0.40991937     1.20190
Mn1094     Mn  0.55963645  0.03832636  0.41010555     1.10090
Cl1095     Cl  0.99748189  0.00365422  0.44306918    -0.86450
C1096       C  0.99074905  0.00583383  0.33361156     0.95880
C1097       C  0.57142527  0.42931332  0.40387706     0.95680
N1098       N  0.90124533  0.43985989  0.21799939    -0.06610
N1099       N  0.86784259  0.42455847  0.23433988    -0.58730
N1100       N  0.93639440  0.41014940  0.16279009    -0.06290
N1101       N  0.92062363  0.37706332  0.14554064    -0.60850
N1102       N  0.94589806  0.40070647  0.18671355    -0.05880
N1103       N  0.93709864  0.36135167  0.18613782    -0.58700
N1104       N  0.89197577  0.44909091  0.19391742    -0.05560
N1105       N  0.85238464  0.44018533  0.19330428    -0.61210
C1106       C  0.83774004  0.42514041  0.21859673     0.95570
C1107       C  0.92217253  0.34724998  0.16026410     0.95350
N1108       N  0.51527483  0.02711244  0.12471975    -0.06790
N1109       N  0.53180157  0.03701071  0.09965313    -0.59300
N1110       N  0.93508201  0.02851919  0.15711852    -0.04910
N1111       N  0.90226497  0.03394092  0.15587428    -0.60560
N1112       N  0.97058752  0.06514509  0.15855542    -0.06820
N1113       N  0.96269199  0.09621089  0.15845695    -0.59570
N1114       N  0.97987423  0.49023715  0.12377666    -0.04550
N1115       N  0.97180797  0.47445924  0.09816041    -0.60640
Mn1116     Mn  0.93534621  0.46901294  0.15884837     1.18440
C1117       C  0.00465535  0.50359711  0.08333927     0.97650
C1118       C  0.91991917  0.07635230  0.15685206     0.98320
N1119       N  0.52416932  0.44609702  0.22697458    -0.06840
N1120       N  0.53272757  0.41540133  0.22673991    -0.63150
N1121       N  0.51482868  0.02064582  0.26238888    -0.05640
N1122       N  0.52324959  0.03582929  0.28816458    -0.63820
N1123       N  0.97936081  0.48381760  0.26135370    -0.06350
N1124       N  0.96315300  0.47342059  0.28647063    -0.63420
N1125       N  0.55943405  0.48297455  0.22853077    -0.05240
N1126       N  0.59259800  0.47820825  0.22964039    -0.64110
Mn1127     Mn  0.96210888  0.44194175  0.22382428     1.10660
C1128       C  0.57557894  0.43597451  0.22844730     0.98870
C1129       C  0.99053603  0.00641205  0.30296878     0.98950
N1130       N  0.54764879  0.11008327  0.19948802    -0.06360
N1131       N  0.55524974  0.14904735  0.20044616    -0.61730
N1132       N  0.60271479  0.06250797  0.19187954    -0.05670
N1133       N  0.64240265  0.07149717  0.19204392    -0.58460
N1134       N  0.59296862  0.07159671  0.16793270    -0.06990
N1135       N  0.62595633  0.08687755  0.15129296    -0.61300
N1136       N  0.55767180  0.10074082  0.22326231    -0.05970
N1137       N  0.57297482  0.13357289  0.24067041    -0.58480
Mn1138     Mn  0.53218525  0.06915607  0.16215242     1.20190
Mn1139     Mn  0.55917071  0.04222705  0.22707887     1.10090
Cl1140     Cl  0.99718529  0.00557444  0.19298869    -0.86450
C1141       C  0.57022642  0.16303525  0.22634572     0.95880
C1142       C  0.65650102  0.08647152  0.16659381     0.95680
C1143       C  0.63811460  0.29667577  0.24440676    -0.05950
C1144       C  0.59372312  0.27174002  0.24842021    -0.33380
C1145       C  0.57112194  0.22832299  0.24260412     0.35870
C1146       C  0.59275428  0.20793608  0.23424901    -0.06310
C1147       C  0.63674714  0.23101676  0.23212046    -0.33280
C1148       C  0.65966507  0.27463037  0.23728144     0.35770
H1149       H  0.57621403  0.28626253  0.25587860     0.16140
O1150       O  0.52789248  0.20609655  0.24521981    -0.60780
H1151       H  0.65367925  0.21498321  0.22652930     0.16160
O1152       O  0.70300984  0.29388386  0.23812778    -0.60880
H1153       H  0.71171780  0.29070857  0.21914135     0.43150
H1154       H  0.52269822  0.19689931  0.26465865     0.43110
C1155       C  0.64164015  0.36946949  0.24207247    -0.05950
C1156       C  0.65772760  0.41113833  0.25246919    -0.33380
C1157       C  0.63745734  0.43351356  0.24735977     0.35870
C1158       C  0.60059058  0.41509700  0.23094063    -0.06310
C1159       C  0.58755413  0.37626897  0.21736561    -0.33280
C1160       C  0.60908197  0.35451990  0.22161200     0.35770
H1161       H  0.68409455  0.42528491  0.26677330     0.16140
O1162       O  0.65257526  0.47233733  0.26004814    -0.60780
H1163       H  0.56096262  0.36303642  0.20305657     0.16160
O1164       O  0.59855492  0.31976699  0.20505194    -0.60880
H1165       H  0.61752249  0.33063830  0.18884705     0.43150
H1166       H  0.63883294  0.46656811  0.27844470     0.43110
C1167       C  0.70811137  0.36951040  0.24489402    -0.05950
C1168       C  0.71770196  0.36864110  0.21662376    -0.33380
C1169       C  0.75969584  0.38685313  0.20768639     0.35870
C1170       C  0.79330605  0.40780092  0.22690285    -0.06310
C1171       C  0.78431753  0.41293883  0.25430302    -0.33280
C1172       C  0.74246234  0.39631974  0.26297018     0.35770
H1173       H  0.69236547  0.35131328  0.20167720     0.16140
O1174       O  0.76735905  0.38240248  0.18034045    -0.60780
H1175       H  0.80994849  0.43152164  0.26887483     0.16160
O1176       O  0.73582036  0.40872631  0.28853033    -0.60880
H1177       H  0.74767081  0.43957066  0.28780913     0.43150
H1178       H  0.76788354  0.35583994  0.17900750     0.43110
C1179       C  0.63583848  0.28993759  0.38683722    -0.05950
C1180       C  0.63614366  0.28060874  0.41505246    -0.33380
C1181       C  0.61708963  0.23939326  0.42436291     0.35870
C1182       C  0.59583947  0.20514645  0.40570476    -0.06310
C1183       C  0.59200803  0.21285225  0.37820387    -0.33280
C1184       C  0.60958575  0.25402558  0.36886066     0.35770
H1185       H  0.64894107  0.30442853  0.43098698     0.16140
O1186       O  0.62037007  0.23312789  0.45186068    -0.60780
H1187       H  0.57301134  0.18656886  0.36402534     0.16160
O1188       O  0.59532717  0.25804213  0.34358424    -0.60880
H1189       H  0.60281614  0.24244821  0.32984371     0.43150
H1190       H  0.59734581  0.23535198  0.46109297     0.43110
C1191       C  0.59455207  0.40627651  0.40119429    -0.05950
C1192       C  0.57181825  0.36217515  0.40067003    -0.33380
C1193       C  0.59168090  0.33908106  0.39482354     0.35870
C1194       C  0.63615726  0.36007538  0.38996247    -0.06310
C1195       C  0.65863876  0.40471815  0.39136046    -0.33280
C1196       C  0.63863384  0.42748206  0.39741920     0.35770
H1197       H  0.53780562  0.34515029  0.40354755     0.16140
O1198       O  0.56632068  0.29619352  0.39216930    -0.60780
H1199       H  0.69198170  0.42276059  0.38647010     0.16160
O1200       O  0.66244122  0.47064434  0.39797074    -0.60880
H1201       H  0.67287314  0.47874979  0.41732713     0.43150
H1202       H  0.55333609  0.29081135  0.37345652     0.43110
C1203       C  0.70704261  0.36340709  0.38739872    -0.05950
C1204       C  0.71718440  0.37114083  0.41604781    -0.33380
C1205       C  0.75893328  0.39005268  0.42601072     0.35870
C1206       C  0.79267792  0.40432221  0.40733466    -0.06310
C1207       C  0.78412765  0.40334466  0.37933975    -0.33280
C1208       C  0.74263000  0.38593795  0.36948987     0.35770
H1209       H  0.69344103  0.36612954  0.43109279     0.16140
O1210       O  0.76612076  0.39422812  0.45404576    -0.60780
H1211       H  0.81014897  0.41861250  0.36494008     0.16160
O1212       O  0.73840934  0.39728356  0.34356095    -0.60880
H1213       H  0.75474062  0.38891745  0.33118505     0.43150
H1214       H  0.76746568  0.42091710  0.45965964     0.43110
C1215       C  0.65661743  0.33733223  0.34524650    -0.05950
C1216       C  0.63287261  0.35159363  0.33122921    -0.33380
C1217       C  0.63071970  0.35098620  0.30240001     0.35870
C1218       C  0.65663301  0.34066575  0.28607782    -0.06310
C1219       C  0.67737322  0.32301300  0.29993742    -0.33280
C1220       C  0.67635084  0.31990593  0.32870912     0.35770
H1221       H  0.61384206  0.36181177  0.34217397     0.16140
O1222       O  0.60143064  0.35866705  0.29088413    -0.60780
H1223       H  0.69564954  0.31236736  0.28841044     0.16160
O1224       O  0.69758680  0.30271602  0.34079814    -0.60880
H1225       H  0.68215038  0.27251487  0.33497507     0.43150
H1226       H  0.57390582  0.33191859  0.29216913     0.43110
C1227       C  0.70069885  0.10387785  0.15737301    -0.05950
C1228       C  0.70885621  0.10529765  0.12908246    -0.33380
C1229       C  0.75022634  0.12339969  0.11908093     0.35870
C1230       C  0.78565332  0.14329455  0.13778792    -0.06310
C1231       C  0.77643218  0.13852492  0.16640612    -0.33280
C1232       C  0.73482114  0.11942854  0.17617992     0.35770
H1233       H  0.68269936  0.09115887  0.11440406     0.16140
O1234       O  0.75457532  0.11724710  0.09139499    -0.60780
H1235       H  0.80211037  0.15106562  0.18140671     0.16160
O1236       O  0.72817527  0.11800738  0.20419422    -0.60880
H1237       H  0.72781658  0.09233740  0.21007062     0.43150
H1238       H  0.74238877  0.13177761  0.08142000     0.43110
C1239       C  0.89992262  0.30233869  0.15226774    -0.05950
C1240       C  0.92047113  0.28577470  0.13682462    -0.33380
C1241       C  0.89997880  0.24259395  0.13003688     0.35870
C1242       C  0.85770428  0.21429619  0.13906507    -0.06310
C1243       C  0.83735585  0.23256350  0.15399980    -0.33280
C1244       C  0.85840379  0.27552979  0.16112451     0.35770
H1245       H  0.95265618  0.30639380  0.12996886     0.16140
O1246       O  0.92170935  0.22827915  0.11445314    -0.60780
H1247       H  0.80456097  0.21464750  0.15981597     0.16160
O1248       O  0.83753630  0.29134124  0.17619324    -0.60880
H1249       H  0.84301923  0.28851834  0.19584731     0.43150
H1250       H  0.92359718  0.23923926  0.09566170     0.43110
C1251       C  0.89561378  0.09817029  0.15468688    -0.05950
C1252       C  0.85422886  0.07610692  0.14406399    -0.33380
C1253       C  0.83277223  0.09708819  0.13762467     0.35870
C1254       C  0.85261344  0.14157033  0.14189495    -0.06310
C1255       C  0.89139090  0.16181053  0.15681561    -0.33280
C1256       C  0.91362843  0.14115247  0.16190956     0.35770
H1257       H  0.83925491  0.04275152  0.13896632     0.16140
O1258       O  0.79435756  0.07439842  0.12434267    -0.60780
H1259       H  0.90633041  0.19437952  0.16357750     0.16160
O1260       O  0.95314200  0.16352886  0.17387250    -0.60880
H1261       H  0.97259241  0.17909960  0.15855852     0.43150
H1262       H  0.77372001  0.05863762  0.13907676     0.43110
C1263       C  0.78933271  0.14938637  0.49489395    -0.05950
C1264       C  0.77247089  0.11533173  0.47497693    -0.33380
C1265       C  0.72929671  0.09191431  0.46811093     0.35870
C1266       C  0.70121043  0.10276579  0.48004511    -0.06310
C1267       C  0.71744391  0.13852317  0.49728414    -0.33280
C1268       C  0.76072339  0.16272984  0.50364528     0.35770
H1269       H  0.79242274  0.10665359  0.46364526     0.16140
O1270       O  0.71492973  0.05814268  0.44987636    -0.60780
H1271       H  0.69684972  0.14983716  0.50438017     0.16160
O1272       O  0.77491043  0.20239997  0.01418578    -0.60880
H1273       H  0.75754937  0.19917232  0.03082878     0.43150
H1274       H  0.72115343  0.07035553  0.43121724     0.43110
C1275       C  0.86229008  0.21805894  0.49454754    -0.05950
C1276       C  0.84715763  0.23028411  0.47199308    -0.33380
C1277       C  0.86736828  0.27215196  0.46407119     0.35870
C1278       C  0.90350084  0.30299587  0.47848938    -0.06310
C1279       C  0.92058175  0.29132057  0.49969690    -0.33280
C1280       C  0.90140868  0.24916841  0.00708648     0.35770
H1281       H  0.81943593  0.20758281  0.46027703     0.16140
O1282       O  0.85111379  0.28277522  0.44238601    -0.60780
H1283       H  0.94927796  0.31485845  0.01027813     0.16160
O1284       O  0.92060799  0.23901478  0.02715647    -0.60880
H1285       H  0.94220667  0.23508731  0.01735496     0.43150
H1286       H  0.83092437  0.29005675  0.45088189     0.42950
C1287       C  0.85771974  0.14624921  0.49302423    -0.05950
C1288       C  0.83835065  0.10327468  0.00026583    -0.33380
C1289       C  0.85797163  0.07984047  0.99561840     0.35870
C1290       C  0.89790076  0.09849074  0.48308326    -0.06310
C1291       C  0.91555012  0.13925123  0.47309207    -0.33280
C1292       C  0.89535860  0.16253996  0.47692821     0.35770
H1293       H  0.80899526  0.08875761  0.01176686     0.16140
O1294       O  0.83876011  0.03948856  0.00493861    -0.60780
H1295       H  0.94534783  0.15327457  0.46210385     0.16160
O1296       O  0.91338871  0.20089916  0.46478007    -0.60880
H1297       H  0.89962715  0.19508244  0.44630902     0.43150
H1298       H  0.84799462  0.04243239  0.02452264     0.43110
C1299       C  0.84002887  0.17387007  0.03753866    -0.05950
C1300       C  0.85788920  0.15359188  0.05186396    -0.33380
C1301       C  0.85716374  0.15083032  0.08051594     0.35870
C1302       C  0.83769437  0.16849058  0.09696432    -0.06310
C1303       C  0.82632114  0.19452898  0.08328092    -0.33280
C1304       C  0.83095020  0.20031091  0.05463675     0.35770
H1305       H  0.87616631  0.14201710  0.04159835     0.16140
O1306       O  0.87813251  0.13279045  0.09155521    -0.60780
H1307       H  0.81599644  0.21275867  0.09535493     0.16160
O1308       O  0.83663423  0.23751553  0.04486740    -0.60880
H1309       H  0.81945667  0.24605031  0.05620611     0.43150
H1310       H  0.90845352  0.15523789  0.09216675     0.43110
C1311       C  0.83748735  0.17224841  0.50472370    -0.02980
C1312       C  0.83341059  0.16661553  0.62905488    -0.02980
C1313       C  0.65879838  0.33742087  0.87743191    -0.02980
C1314       C  0.66094363  0.34406288  0.75400893    -0.02980
N1315       N  0.97233963  0.06481828  0.97934832    -0.06610
N1316       N  0.96467525  0.09606924  0.97991792    -0.58730
N1317       N  0.98002895  0.48965353  0.51195418    -0.06290
N1318       N  0.97173276  0.47423855  0.53707941    -0.60850
N1319       N  0.51561446  0.02632157  0.51209655    -0.05880
N1320       N  0.53209281  0.03644614  0.53740345    -0.58700
N1321       N  0.93663234  0.02835011  0.97998122    -0.05560
N1322       N  0.90398335  0.03401343  0.98114313    -0.61210
C1323       C  0.92188466  0.07636214  0.98109510     0.95570
C1324       C  0.00467565  0.50339260  0.55272155     0.95350
N1325       N  0.94480561  0.39922317  0.94562568    -0.06790
N1326       N  0.93671615  0.36013590  0.94504542    -0.59300
N1327       N  0.89183287  0.44809126  0.94111466    -0.04910
N1328       N  0.85190869  0.43827850  0.94193199    -0.60560
N1329       N  0.90108077  0.43874378  0.91655038    -0.06820
N1330       N  0.86746326  0.42236026  0.90016374    -0.59570
N1331       N  0.93653262  0.40949507  0.97022021    -0.04550
N1332       N  0.92263764  0.37739470  0.98689420    -0.60640
Mn1333     Mn  0.93572101  0.46839901  0.97640672     1.18440
C1334       C  0.92358753  0.34717630  0.97093862     0.97650
C1335       C  0.83712755  0.42246951  0.91626043     0.98320
N1336       N  0.59318920  0.06798664  0.97018061    -0.06840
N1337       N  0.62625620  0.08389226  0.98700079    -0.63150
N1338       N  0.56033083  0.09791664  0.91590442    -0.05640
N1339       N  0.57614462  0.13003094  0.89915160    -0.63820
N1340       N  0.55155398  0.10876125  0.94012430    -0.06350
N1341       N  0.56151936  0.14850512  0.94037374    -0.63420
N1342       N  0.60241118  0.05712642  0.94611968    -0.05240
N1343       N  0.64173509  0.06503269  0.94622479    -0.64110
Mn1344     Mn  0.53365008  0.06775344  0.97597759     1.10660
C1345       C  0.65613930  0.08135597  0.97190628     0.98870
C1346       C  0.57652489  0.16128891  0.91467228     0.98950
N1347       N  0.97932309  0.48206074  0.87405505    -0.06360
N1348       N  0.96279863  0.47274933  0.84874343    -0.61730
N1349       N  0.55787630  0.47817337  0.90611187    -0.05670
N1350       N  0.59004378  0.47177054  0.90479726    -0.58460
N1351       N  0.52180578  0.44210787  0.90592514    -0.06990
N1352       N  0.52866372  0.41036312  0.90456640    -0.61300
N1353       N  0.51552713  0.01821125  0.87434171    -0.05970
N1354       N  0.52406776  0.03415182  0.84935925    -0.58480
Mn1355     Mn  0.96111967  0.43993474  0.90991857     1.20190
Mn1356     Mn  0.55963242  0.03832214  0.91010626     1.10090
Cl1357     Cl  0.99747725  0.00364991  0.94306925    -0.86450
C1358       C  0.99074784  0.00583274  0.83361140     0.95880
C1359       C  0.57141939  0.42930809  0.90387689     0.95680
N1360       N  0.90124679  0.43986125  0.71799887    -0.06610
N1361       N  0.86784402  0.42455942  0.73433937    -0.58730
N1362       N  0.93639719  0.41015253  0.66278941    -0.06290
N1363       N  0.92062700  0.37706658  0.64553989    -0.60850
N1364       N  0.94590117  0.40070976  0.68671280    -0.05880
N1365       N  0.93710278  0.36135536  0.68613697    -0.58700
N1366       N  0.89197706  0.44909229  0.69391695    -0.05560
N1367       N  0.85238577  0.44018630  0.69330388    -0.61210
C1368       C  0.83774121  0.42514110  0.71859632     0.95570
C1369       C  0.92217686  0.34725370  0.66026327     0.95350
N1370       N  0.51527696  0.02711634  0.62471987    -0.06790
N1371       N  0.53180435  0.03701523  0.59965346    -0.59300
N1372       N  0.93508297  0.02852122  0.65711863    -0.04910
N1373       N  0.90226565  0.03394258  0.65587455    -0.60560
N1374       N  0.97058830  0.06514726  0.65855588    -0.06820
N1375       N  0.96269237  0.09621278  0.65845779    -0.59570
N1376       N  0.97987655  0.49024090  0.62377640    -0.04550
N1377       N  0.97181107  0.47446349  0.59816002    -0.60640
Mn1378     Mn  0.93534799  0.46901546  0.65884799     1.18440
C1379       C  0.00465874  0.50360187  0.58333926     0.97650
C1380       C  0.91991952  0.07635391  0.65685278     0.98320
N1381       N  0.52417141  0.44609936  0.72697403    -0.06840
N1382       N  0.53272964  0.41540366  0.72673935    -0.63150
N1383       N  0.51482997  0.02064689  0.76238897    -0.05640
N1384       N  0.52325021  0.03582957  0.78816490    -0.63820
N1385       N  0.97936198  0.48381879  0.76135329    -0.06350
N1386       N  0.96315341  0.47342108  0.78646998    -0.63420
N1387       N  0.55943614  0.48297688  0.72853032    -0.05240
N1388       N  0.59260008  0.47821055  0.72964006    -0.64110
Mn1389     Mn  0.96211084  0.44194387  0.72382369     1.10660
C1390       C  0.57558100  0.43597680  0.72844688     0.98870
C1391       C  0.99053609  0.00641194  0.80296860     0.98950
N1392       N  0.54764935  0.11008512  0.69948871    -0.06360
N1393       N  0.55524965  0.14904895  0.70044717    -0.61730
N1394       N  0.60271692  0.06251124  0.69187927    -0.05670
N1395       N  0.64240494  0.07150074  0.69204323    -0.58460
N1396       N  0.59297046  0.07160038  0.66793266    -0.06990
N1397       N  0.62595805  0.08688175  0.65129275    -0.61300
N1398       N  0.55767277  0.10074259  0.72326281    -0.05970
N1399       N  0.57297551  0.13357440  0.74067111    -0.58480
Mn1400     Mn  0.53218653  0.06915898  0.66215278     1.20190
Mn1401     Mn  0.55917246  0.04222920  0.72707885     1.10090
Cl1402     Cl  0.99718699  0.00557688  0.69298855    -0.86450
C1403       C  0.57022642  0.16303661  0.72634673     0.95880
C1404       C  0.65650313  0.08647568  0.66659314     0.95680
C1405       C  0.63811524  0.29667719  0.74440660    -0.05950
C1406       C  0.59372365  0.27174188  0.74841978    -0.33380
C1407       C  0.57112226  0.22832475  0.74260420     0.35870
C1408       C  0.59275446  0.20793737  0.73424992    -0.06310
C1409       C  0.63674733  0.23101766  0.73212151    -0.33280
C1410       C  0.65966547  0.27463135  0.73728192     0.35770
H1411       H  0.57621467  0.28626474  0.75587766     0.16140
O1412       O  0.52789274  0.20609868  0.74521959    -0.60780
H1413       H  0.65367925  0.21498376  0.72653081     0.16160
O1414       O  0.70301022  0.29388459  0.73812826    -0.60880
H1415       H  0.71171809  0.29070901  0.71914186     0.43150
H1416       H  0.52269809  0.19690195  0.76465853     0.43110
C1417       C  0.64164155  0.36947121  0.74207234    -0.05950
C1418       C  0.65772885  0.41113984  0.75246940    -0.33380
C1419       C  0.63745882  0.43351529  0.74735989     0.35870
C1420       C  0.60059251  0.41509917  0.73094034    -0.06310
C1421       C  0.58755627  0.37627137  0.71736505    -0.33280
C1422       C  0.60908387  0.35452209  0.72161154     0.35770
H1423       H  0.68409542  0.42528602  0.76677383     0.16140
O1424       O  0.65257646  0.47233880  0.76004860    -0.60780
H1425       H  0.56096510  0.36303915  0.70305576     0.16160
O1426       O  0.59855703  0.31976938  0.70505132    -0.60880
H1427       H  0.61752441  0.33064097  0.68884636     0.43150
H1428       H  0.63883356  0.46656918  0.77844497     0.43110
C1429       C  0.70811239  0.36951135  0.74489391    -0.05950
C1430       C  0.71770294  0.36864189  0.71662364    -0.33380
C1431       C  0.75969681  0.38685374  0.70768621     0.35870
C1432       C  0.79330715  0.40780146  0.72690260    -0.06310
C1433       C  0.78431866  0.41293931  0.75430282    -0.33280
C1434       C  0.74246345  0.39632039  0.76297004     0.35770
H1435       H  0.69236641  0.35131417  0.70167710     0.16140
O1436       O  0.76735988  0.38240308  0.68034024    -0.60780
H1437       H  0.80994966  0.43152201  0.76887461     0.16160
O1438       O  0.73582152  0.40872697  0.78853019    -0.60880
H1439       H  0.74767209  0.43957133  0.78780900     0.43150
H1440       H  0.76788419  0.35584045  0.67900723     0.43110
C1441       C  0.63583257  0.28993271  0.88683699    -0.05950
C1442       C  0.63613248  0.28060429  0.91505288    -0.33380
C1443       C  0.61707946  0.23938902  0.92436358     0.35870
C1444       C  0.59583414  0.20514189  0.90570505    -0.06310
C1445       C  0.59200637  0.21284719  0.87820338    -0.33280
C1446       C  0.60958373  0.25402030  0.86885976     0.35770
H1447       H  0.64892329  0.30442430  0.93098749     0.16140
O1448       O  0.62035557  0.23312430  0.95186208    -0.60780
H1449       H  0.57301270  0.18656346  0.86402437     0.16160
O1450       O  0.59532758  0.25803591  0.84358216    -0.60880
H1451       H  0.60281815  0.24244187  0.82984279     0.43150
H1452       H  0.59732844  0.23534631  0.96109179     0.43110
C1453       C  0.59454577  0.40627084  0.90119409    -0.05950
C1454       C  0.57181137  0.36216944  0.90066745    -0.33380
C1455       C  0.59167419  0.33907556  0.89482082     0.35870
C1456       C  0.63615125  0.36007000  0.88996232    -0.06310
C1457       C  0.65863319  0.40471266  0.89136269    -0.33280
C1458       C  0.63862803  0.42747636  0.89742131     0.35770
H1459       H  0.53779833  0.34514459  0.90354300     0.16140
O1460       O  0.56631373  0.29618834  0.89216359    -0.60780
H1461       H  0.69197680  0.42275547  0.88647428     0.16160
O1462       O  0.66243591  0.47063863  0.89797508    -0.60880
H1463       H  0.67286562  0.47874168  0.91733205     0.43150
H1464       H  0.55333382  0.29080911  0.87344948     0.43110
C1465       C  0.70703703  0.36340188  0.88739907    -0.05950
C1466       C  0.71717886  0.37113267  0.91604826    -0.33380
C1467       C  0.75892788  0.39004470  0.92601101     0.35870
C1468       C  0.79267259  0.40431697  0.90733485    -0.06310
C1469       C  0.78412218  0.40334177  0.87934022    -0.33280
C1470       C  0.74262442  0.38593519  0.86949058     0.35770
H1471       H  0.69343595  0.36611998  0.93109374     0.16140
O1472       O  0.76611543  0.39421786  0.95404601    -0.60780
H1473       H  0.81014344  0.41861154  0.86494071     0.16160
O1474       O  0.73840344  0.39728295  0.84356242    -0.60880
H1475       H  0.75473537  0.38891855  0.83118584     0.43150
H1476       H  0.76745920  0.42090586  0.95966126     0.43110
C1477       C  0.65661307  0.33732836  0.84524635    -0.05950
C1478       C  0.63286924  0.35159068  0.83122888    -0.33380
C1479       C  0.63071864  0.35098564  0.80239964     0.35870
C1480       C  0.65663333  0.34066664  0.78607772    -0.06310
C1481       C  0.67737307  0.32301346  0.79993742    -0.33280
C1482       C  0.67634840  0.31990401  0.82870901     0.35770
H1483       H  0.61383809  0.36180826  0.84217343     0.16140
O1484       O  0.60143052  0.35866749  0.79088338    -0.60780
H1485       H  0.69565053  0.31236903  0.78841061     0.16160
O1486       O  0.69758422  0.30271401  0.84079812    -0.60880
H1487       H  0.68214980  0.27251357  0.83497331     0.43150
H1488       H  0.57390528  0.33191940  0.79216807     0.43110
C1489       C  0.70070131  0.10388299  0.65737210    -0.05950
C1490       C  0.70885956  0.10530720  0.62908141    -0.33380
C1491       C  0.75023005  0.12341013  0.61908003     0.35870
C1492       C  0.78565658  0.14330035  0.63778748    -0.06310
C1493       C  0.77643451  0.13852791  0.66640553    -0.33280
C1494       C  0.73482327  0.11943095  0.67617906     0.35770
H1495       H  0.68270314  0.09117173  0.61440266     0.16140
O1496       O  0.75457958  0.11726451  0.59139314    -0.60780
H1497       H  0.80211222  0.15106624  0.68140637     0.16160
O1498       O  0.72817695  0.11800628  0.70419338    -0.60880
H1499       H  0.72781767  0.09233522  0.71006796     0.43150
H1500       H  0.74239707  0.13180132  0.58142121     0.43110
C1501       C  0.89992698  0.30234252  0.65226738    -0.05950
C1502       C  0.92047604  0.28577792  0.63682556    -0.33380
C1503       C  0.89998377  0.24259704  0.63003858     0.35870
C1504       C  0.85770877  0.21429996  0.63906628    -0.06310
C1505       C  0.83736029  0.23256767  0.65400044    -0.33280
C1506       C  0.85840810  0.27553416  0.66112420     0.35770
H1507       H  0.95266137  0.30639667  0.62997015     0.16140
O1508       O  0.92171447  0.22828139  0.61445574    -0.60780
H1509       H  0.80456543  0.21465188  0.65981672     0.16160
O1510       O  0.83754050  0.29134630  0.67619208    -0.60880
H1511       H  0.84302310  0.28852417  0.69584637     0.43150
H1512       H  0.92360386  0.23924171  0.59566418     0.43110
C1513       C  0.89561400  0.09817186  0.65468811    -0.05950
C1514       C  0.85422896  0.07610902  0.64406525    -0.33380
C1515       C  0.83277299  0.09709108  0.63762595     0.35870
C1516       C  0.85261534  0.14157335  0.64189593    -0.06310
C1517       C  0.89139223  0.16181259  0.65681722    -0.33280
C1518       C  0.91362900  0.14115390  0.66191123     0.35770
H1519       H  0.83925460  0.04275362  0.63896746     0.16140
O1520       O  0.79435828  0.07440218  0.62434384    -0.60780
H1521       H  0.90633207  0.19438142  0.66357952     0.16160
O1522       O  0.95314233  0.16352962  0.67387459    -0.60880
H1523       H  0.97259314  0.17910101  0.65856094     0.43150
H1524       H  0.77372041  0.05864204  0.63907792     0.43110
C1525       C  0.78932882  0.14938409  0.99489063    -0.05950
C1526       C  0.77246270  0.11531937  0.97498115    -0.33380
C1527       C  0.72928792  0.09190146  0.96811748     0.35870
C1528       C  0.70120559  0.10276268  0.98004565    -0.06310
C1529       C  0.71744385  0.13853133  0.99727444    -0.33280
C1530       C  0.76072494  0.16273945  0.00363213     0.35770
H1531       H  0.79241107  0.10663323  0.96365306     0.16140
O1532       O  0.71491633  0.05811981  0.94989104    -0.60780
H1533       H  0.69685260  0.14985314  0.00436249     0.16160
O1534       O  0.77490013  0.20237779  0.51421876    -0.60880
H1535       H  0.75754849  0.19912558  0.53087116     0.43150
H1536       H  0.72113904  0.07032226  0.93122879     0.43110
C1537       C  0.86228660  0.21805500  0.99454752    -0.05950
C1538       C  0.84716587  0.23027462  0.97198375    -0.33380
C1539       C  0.86737554  0.27214191  0.96406078     0.35870
C1540       C  0.90349632  0.30299047  0.97848677    -0.06310
C1541       C  0.92056813  0.29132016  0.99970279    -0.33280
C1542       C  0.90142046  0.24916802  0.50707952     0.35770
H1543       H  0.81945325  0.20756898  0.96026195     0.16140
O1544       O  0.85113071  0.28276000  0.94236735    -0.60780
H1545       H  0.94929924  0.31485549  0.51026664     0.16160
O1546       O  0.92062486  0.23900903  0.52714288    -0.60880
H1547       H  0.94223102  0.23509793  0.51733745     0.43150
H1548       H  0.83093185  0.29003592  0.95085426     0.42950
C1549       C  0.85771622  0.14624557  0.99302488    -0.05950
C1550       C  0.83835328  0.10327794  0.50026413    -0.33380
C1551       C  0.85797457  0.07984392  0.49561662     0.35870
C1552       C  0.89789781  0.09848710  0.98308524    -0.06310
C1553       C  0.91554875  0.13924852  0.97309547    -0.33280
C1554       C  0.89535795  0.16253789  0.97693164     0.35770
H1555       H  0.80899787  0.08876087  0.51176511     0.16140
O1556       O  0.83876351  0.03949215  0.50493702    -0.60780
H1557       H  0.94534780  0.15327261  0.96210878     0.16160
O1558       O  0.91339338  0.20090059  0.96478780    -0.60880
H1559       H  0.89964339  0.19508812  0.94631302     0.43150
H1560       H  0.84799818  0.04243631  0.52452103     0.43110
C1561       C  0.84003884  0.17387710  0.53753930    -0.05950
C1562       C  0.85789293  0.15359315  0.55186445    -0.33380
C1563       C  0.85716658  0.15083173  0.58051654     0.35870
C1564       C  0.83770056  0.16849599  0.59696468    -0.06310
C1565       C  0.82633557  0.19454072  0.58328108    -0.33280
C1566       C  0.83097010  0.20032515  0.55463734     0.35770
H1567       H  0.87616521  0.14201290  0.54159879     0.16140
O1568       O  0.87813097  0.13278757  0.59155601    -0.60780
H1569       H  0.81601418  0.21277362  0.59535454     0.16160
O1570       O  0.83666300  0.23753339  0.54486742    -0.60880
H1571       H  0.81949220  0.24607575  0.55620692     0.43150
H1572       H  0.90845248  0.15523351  0.59216989     0.43110
C1573       C  0.83748228  0.67224414  0.00472288    -0.02980
C1574       C  0.83340689  0.66661123  0.12905449    -0.02980
C1575       C  0.65880385  0.83742571  0.37743201    -0.02980
C1576       C  0.66094269  0.84406154  0.25400904    -0.02980
N1577       N  0.97234395  0.56482312  0.47934768    -0.06610
N1578       N  0.96467909  0.59607382  0.47991663    -0.58730
N1579       N  0.98002417  0.98964825  0.01195426    -0.06290
N1580       N  0.97172827  0.97423333  0.03707954    -0.60850
N1581       N  0.51560971  0.52631628  0.01209658    -0.05880
N1582       N  0.53208841  0.53644081  0.03740335    -0.58700
N1583       N  0.93663682  0.52835480  0.47998072    -0.05560
N1584       N  0.90398757  0.53401774  0.48114215    -0.61210
C1585       C  0.92188838  0.57636636  0.48109362     0.95570
C1586       C  0.00467146  0.00338740  0.05272155     0.95350
N1587       N  0.94481157  0.89922756  0.44562719    -0.06790
N1588       N  0.93672297  0.86014055  0.44504785    -0.59300
N1589       N  0.89183765  0.94809514  0.44111497    -0.04910
N1590       N  0.85191376  0.93828335  0.44193201    -0.60560
N1591       N  0.90108540  0.93874672  0.41655097    -0.06820
N1592       N  0.86746811  0.92236357  0.40016416    -0.59570
N1593       N  0.93653797  0.90950001  0.47022134    -0.04550
N1594       N  0.92264327  0.87740032  0.48689589    -0.60640
Mn1595     Mn  0.93572589  0.96840379  0.47640688     1.18440
C1596       C  0.92359458  0.84718188  0.47094127     0.97650
C1597       C  0.83713266  0.92247398  0.41626051     0.98320
N1598       N  0.59319395  0.56799108  0.47017966    -0.06840
N1599       N  0.62626089  0.58389585  0.48699981    -0.63150
N1600       N  0.56033455  0.59792079  0.41590360    -0.05640
N1601       N  0.57614857  0.63003519  0.39915084    -0.63820
N1602       N  0.55155828  0.60876560  0.44012362    -0.06350
N1603       N  0.56152424  0.64850964  0.44037321    -0.63420
N1604       N  0.60241600  0.55713157  0.44611849    -0.05240
N1605       N  0.64173995  0.56503782  0.44622334    -0.64110
Mn1606     Mn  0.53365473  0.56775822  0.47597709     1.10660
C1607       C  0.65614423  0.58136032  0.47190496     0.98870
C1608       C  0.57652949  0.66129334  0.41467171     0.98950
N1609       N  0.97932642  0.98206297  0.37405544    -0.06360
N1610       N  0.96280092  0.97275062  0.34874413    -0.61730
N1611       N  0.55788121  0.97817796  0.40611161    -0.05670
N1612       N  0.59004908  0.97177573  0.40479674    -0.58460
N1613       N  0.52181103  0.94211217  0.40592569    -0.06990
N1614       N  0.52866957  0.91036782  0.40456723    -0.61300
N1615       N  0.51553002  0.51821392  0.37434147    -0.05970
N1616       N  0.52406938  0.53415379  0.34935881    -0.58480
Mn1617     Mn  0.96112448  0.93993805  0.40991937     1.20190
Mn1618     Mn  0.55963646  0.53832635  0.41010555     1.10090
Cl1619     Cl  0.99748190  0.50365422  0.44306918    -0.86450
C1620       C  0.99074906  0.50583383  0.33361155     0.95880
C1621       C  0.57142526  0.92931333  0.40387706     0.95680
N1622       N  0.90124534  0.93985989  0.21799940    -0.06610
N1623       N  0.86784260  0.92455847  0.23433989    -0.58730
N1624       N  0.93639442  0.91014941  0.16279010    -0.06290
N1625       N  0.92062366  0.87706334  0.14554065    -0.60850
N1626       N  0.94589808  0.90070648  0.18671356    -0.05880
N1627       N  0.93709866  0.86135169  0.18613783    -0.58700
N1628       N  0.89197578  0.94909092  0.19391742    -0.05560
N1629       N  0.85238465  0.94018534  0.19330429    -0.61210
C1630       C  0.83774005  0.92514041  0.21859674     0.95570
C1631       C  0.92217256  0.84724999  0.16026411     0.95350
N1632       N  0.51527483  0.52711244  0.12471974    -0.06790
N1633       N  0.53180156  0.53701070  0.09965312    -0.59300
N1634       N  0.93508201  0.52851918  0.15711851    -0.04910
N1635       N  0.90226496  0.53394092  0.15587428    -0.60560
N1636       N  0.97058752  0.56514509  0.15855541    -0.06820
N1637       N  0.96269199  0.59621089  0.15845694    -0.59570
N1638       N  0.97987424  0.99023716  0.12377667    -0.04550
N1639       N  0.97180798  0.97445925  0.09816042    -0.60640
Mn1640     Mn  0.93534622  0.96901295  0.15884837     1.18440
C1641       C  0.00465536  0.00359712  0.08333928     0.97650
C1642       C  0.91991917  0.57635230  0.15685205     0.98320
N1643       N  0.52416932  0.94609701  0.22697459    -0.06840
N1644       N  0.53272758  0.91540133  0.22673992    -0.63150
N1645       N  0.51482868  0.52064582  0.26238887    -0.05640
N1646       N  0.52324960  0.53582929  0.28816457    -0.63820
N1647       N  0.97936082  0.98381761  0.26135371    -0.06350
N1648       N  0.96315300  0.97342059  0.28647064    -0.63420
N1649       N  0.55943406  0.98297455  0.22853078    -0.05240
N1650       N  0.59259800  0.97820825  0.22964040    -0.64110
Mn1651     Mn  0.96210889  0.94194176  0.22382429     1.10660
C1652       C  0.57557895  0.93597451  0.22844732     0.98870
C1653       C  0.99053604  0.50641204  0.30296877     0.98950
N1654       N  0.54764880  0.61008328  0.19948801    -0.06360
N1655       N  0.55524975  0.64904736  0.20044614    -0.61730
N1656       N  0.60271479  0.56250797  0.19187953    -0.05670
N1657       N  0.64240266  0.57149718  0.19204390    -0.58460
N1658       N  0.59296862  0.57159672  0.16793268    -0.06990
N1659       N  0.62595633  0.58687756  0.15129295    -0.61300
N1660       N  0.55767181  0.60074082  0.22326229    -0.05970
N1661       N  0.57297484  0.63357290  0.24067040    -0.58480
Mn1662     Mn  0.53218525  0.56915607  0.16215241     1.20190
Mn1663     Mn  0.55917071  0.54222705  0.22707885     1.10090
Cl1664     Cl  0.99718528  0.50557444  0.19298868    -0.86450
C1665       C  0.57022643  0.66303526  0.22634571     0.95880
C1666       C  0.65650102  0.58647153  0.16659379     0.95680
C1667       C  0.63811461  0.79667578  0.24440677    -0.05950
C1668       C  0.59372312  0.77174004  0.24842018    -0.33380
C1669       C  0.57112195  0.72832301  0.24260408     0.35870
C1670       C  0.59275429  0.70793609  0.23424900    -0.06310
C1671       C  0.63674716  0.73101676  0.23212049    -0.33280
C1672       C  0.65966508  0.77463037  0.23728147     0.35770
H1673       H  0.57621403  0.78626254  0.25587854     0.16140
O1674       O  0.52789248  0.70609658  0.24521973    -0.60780
H1675       H  0.65367927  0.71498321  0.22652935     0.16160
O1676       O  0.70300986  0.79388386  0.23812784    -0.60880
H1677       H  0.71171784  0.79070857  0.21914141     0.43150
H1678       H  0.52269817  0.69689933  0.26465856     0.43110
C1679       C  0.64164016  0.86946950  0.24207249    -0.05950
C1680       C  0.65772759  0.91113832  0.25246923    -0.33380
C1681       C  0.63745732  0.93351354  0.24735982     0.35870
C1682       C  0.60059059  0.91509700  0.23094065    -0.06310
C1683       C  0.58755418  0.87626900  0.21736560    -0.33280
C1684       C  0.60908202  0.85451994  0.22161199     0.35770
H1685       H  0.68409451  0.92528489  0.26677336     0.16140
O1686       O  0.65257519  0.97233729  0.26004822    -0.60780
H1687       H  0.56096269  0.86303647  0.20305655     0.16160
O1688       O  0.59855502  0.81976706  0.20505191    -0.60880
H1689       H  0.61752257  0.83063841  0.18884702     0.43150
H1690       H  0.63883283  0.96656802  0.27844477     0.43110
C1691       C  0.70811139  0.86951041  0.24489403    -0.05950
C1692       C  0.71770197  0.86864109  0.21662377    -0.33380
C1693       C  0.75969585  0.88685311  0.20768640     0.35870
C1694       C  0.79330606  0.90780092  0.22690286    -0.06310
C1695       C  0.78431754  0.91293885  0.25430302    -0.33280
C1696       C  0.74246235  0.89631976  0.26297018     0.35770
H1697       H  0.69236549  0.85131325  0.20167721     0.16140
O1698       O  0.76735906  0.88240244  0.18034046    -0.60780
H1699       H  0.80994850  0.93152167  0.26887483     0.16160
O1700       O  0.73582037  0.90872634  0.28853033    -0.60880
H1701       H  0.74767083  0.93957069  0.28780913     0.43150
H1702       H  0.76788356  0.85583990  0.17900753     0.43110
C1703       C  0.63583847  0.78993759  0.38683722    -0.05950
C1704       C  0.63614354  0.78060874  0.41505248    -0.33380
C1705       C  0.61708954  0.73939327  0.42436293     0.35870
C1706       C  0.59583948  0.70514645  0.40570477    -0.06310
C1707       C  0.59200810  0.71285225  0.37820386    -0.33280
C1708       C  0.60958580  0.75402557  0.36886065     0.35770
H1709       H  0.64894083  0.80442854  0.43098700     0.16140
O1710       O  0.62036989  0.73312790  0.45186071    -0.60780
H1711       H  0.57301147  0.68656886  0.36402532     0.16160
O1712       O  0.59532726  0.75804211  0.34358421    -0.60880
H1713       H  0.60281627  0.74244819  0.32984370     0.43150
H1714       H  0.59734557  0.73535195  0.46109295     0.43110
C1715       C  0.59455206  0.90627651  0.40119429    -0.05950
C1716       C  0.57181824  0.86217515  0.40067002    -0.33380
C1717       C  0.59168089  0.83908106  0.39482354     0.35870
C1718       C  0.63615725  0.86007538  0.38996247    -0.06310
C1719       C  0.65863875  0.90471815  0.39136047    -0.33280
C1720       C  0.63863383  0.92748206  0.39741920     0.35770
H1721       H  0.53780561  0.84515029  0.40354754     0.16140
O1722       O  0.56632067  0.79619352  0.39216928    -0.60780
H1723       H  0.69198169  0.92276059  0.38647012     0.16160
O1724       O  0.66244120  0.97064434  0.39797073    -0.60880
H1725       H  0.67287313  0.97874979  0.41732713     0.43150
H1726       H  0.55333614  0.79081136  0.37345648     0.43110
C1727       C  0.70704259  0.86340708  0.38739873    -0.05950
C1728       C  0.71718438  0.87114077  0.41604782    -0.33380
C1729       C  0.75893327  0.89005262  0.42601074     0.35870
C1730       C  0.79267791  0.90432220  0.40733467    -0.06310
C1731       C  0.78412764  0.90334470  0.37933977    -0.33280
C1732       C  0.74262999  0.88593799  0.36948990     0.35770
H1733       H  0.69344102  0.86612945  0.43109282     0.16140
O1734       O  0.76612075  0.89422801  0.45404577    -0.60780
H1735       H  0.81014895  0.91861258  0.36494010     0.16160
O1736       O  0.73840931  0.89728364  0.34356099    -0.60880
H1737       H  0.75474061  0.88891757  0.33118507     0.43150
H1738       H  0.76746564  0.92091697  0.45965969     0.43110
C1739       C  0.65661744  0.83733224  0.34524651    -0.05950
C1740       C  0.63287258  0.85159359  0.33122922    -0.33380
C1741       C  0.63071967  0.85098615  0.30240001     0.35870
C1742       C  0.65663302  0.84066574  0.28607783    -0.06310
C1743       C  0.67737326  0.82301303  0.29993743    -0.33280
C1744       C  0.67635089  0.81990597  0.32870914     0.35770
H1745       H  0.61384200  0.86181171  0.34217397     0.16140
O1746       O  0.60143058  0.85866695  0.29088413    -0.60780
H1747       H  0.69564961  0.81236742  0.28841045     0.16160
O1748       O  0.69758687  0.80271609  0.34079816    -0.60880
H1749       H  0.68215048  0.77251494  0.33497509     0.43150
H1750       H  0.57390577  0.83191848  0.29216915     0.43110
C1751       C  0.70069885  0.60387787  0.15737299    -0.05950
C1752       C  0.70885623  0.60529771  0.12908244    -0.33380
C1753       C  0.75022636  0.62339976  0.11908091     0.35870
C1754       C  0.78565333  0.64329459  0.13778791    -0.06310
C1755       C  0.77643219  0.63852492  0.16640611    -0.33280
C1756       C  0.73482114  0.61942854  0.17617990     0.35770
H1757       H  0.68269938  0.59115896  0.11440404     0.16140
O1758       O  0.75457535  0.61724722  0.09139497    -0.60780
H1759       H  0.80211036  0.65106560  0.18140671     0.16160
O1760       O  0.72817527  0.61800734  0.20419421    -0.60880
H1761       H  0.72781657  0.59233735  0.21007059     0.43150
H1762       H  0.74238883  0.63177778  0.08142001     0.43110
C1763       C  0.89992265  0.80233871  0.15226775    -0.05950
C1764       C  0.92047115  0.78577472  0.13682461    -0.33380
C1765       C  0.89997882  0.74259398  0.13003688     0.35870
C1766       C  0.85770431  0.71429621  0.13906508    -0.06310
C1767       C  0.83735588  0.73256352  0.15399982    -0.33280
C1768       C  0.85840383  0.77552981  0.16112454     0.35770
H1769       H  0.95265619  0.80639383  0.12996884     0.16140
O1770       O  0.92170936  0.72827917  0.11445312    -0.60780
H1771       H  0.80456101  0.71464752  0.15981601     0.16160
O1772       O  0.83753636  0.79134125  0.17619329    -0.60880
H1773       H  0.84301930  0.78851835  0.19584736     0.43150
H1774       H  0.92359719  0.73923929  0.09566168     0.43110
C1775       C  0.89561379  0.59817030  0.15468687    -0.05950
C1776       C  0.85422885  0.57610693  0.14406401    -0.33380
C1777       C  0.83277222  0.59708821  0.13762469     0.35870
C1778       C  0.85261345  0.64157035  0.14189495    -0.06310
C1779       C  0.89139093  0.66181055  0.15681560    -0.33280
C1780       C  0.91362845  0.64115248  0.16190954     0.35770
H1781       H  0.83925488  0.54275152  0.13896635     0.16140
O1782       O  0.79435753  0.57439843  0.12434271    -0.60780
H1783       H  0.90633045  0.69437954  0.16357748     0.16160
O1784       O  0.95314204  0.66352888  0.17387245    -0.60880
H1785       H  0.97259243  0.67909960  0.15855846     0.43150
H1786       H  0.77372000  0.55863765  0.13907682     0.43110
C1787       C  0.78933271  0.64938637  0.49489396    -0.05950
C1788       C  0.77247090  0.61533174  0.47497693    -0.33380
C1789       C  0.72929672  0.59191431  0.46811092     0.35870
C1790       C  0.70121043  0.60276578  0.48004511    -0.06310
C1791       C  0.71744391  0.63852315  0.49728415    -0.33280
C1792       C  0.76072339  0.66272982  0.50364529     0.35770
H1793       H  0.79242276  0.60665360  0.46364525     0.16140
O1794       O  0.71492975  0.55814269  0.44987634    -0.60780
H1795       H  0.69684971  0.64983712  0.50438019     0.16160
O1796       O  0.77491030  0.70239974  0.01418604    -0.60880
H1797       H  0.75754931  0.69917189  0.03082913     0.43150
H1798       H  0.72115344  0.57035555  0.43121723     0.43110
C1799       C  0.86229009  0.71805893  0.49454754    -0.05950
C1800       C  0.84715761  0.73028412  0.47199309    -0.33380
C1801       C  0.86736827  0.77215197  0.46407120     0.35870
C1802       C  0.90350084  0.80299587  0.47848938    -0.06310
C1803       C  0.92058176  0.79132057  0.49969689    -0.33280
C1804       C  0.90140873  0.74916836  0.00708642     0.35770
H1805       H  0.81943590  0.70758282  0.46027704     0.16140
O1806       O  0.85111376  0.78277523  0.44238604    -0.60780
H1807       H  0.94927809  0.81485838  0.01027803     0.16160
O1808       O  0.92060809  0.73901469  0.02715635    -0.60880
H1809       H  0.94220683  0.73508736  0.01735481     0.43150
H1810       H  0.83092436  0.79005677  0.45088192     0.42950
C1811       C  0.85771974  0.64624921  0.49302423    -0.05950
C1812       C  0.83835062  0.60327466  0.00026581    -0.33380
C1813       C  0.85797161  0.57984046  0.99561838     0.35870
C1814       C  0.89790076  0.59849074  0.48308326    -0.06310
C1815       C  0.91555012  0.63925123  0.47309206    -0.33280
C1816       C  0.89535859  0.66253996  0.47692820     0.35770
H1817       H  0.80899524  0.58875759  0.01176684     0.16140
O1818       O  0.83876010  0.53948854  0.00493859    -0.60780
H1819       H  0.94534782  0.65327457  0.46210384     0.16160
O1820       O  0.91338870  0.70089915  0.46478006    -0.60880
H1821       H  0.89962712  0.69508242  0.44630901     0.43150
H1822       H  0.84799460  0.54243238  0.02452262     0.43110
C1823       C  0.84002891  0.67387008  0.03753866    -0.05950
C1824       C  0.85788919  0.65359185  0.05186396    -0.33380
C1825       C  0.85716373  0.65083030  0.08051594     0.35870
C1826       C  0.83769440  0.66849060  0.09696432    -0.06310
C1827       C  0.82632124  0.69452906  0.08328092    -0.33280
C1828       C  0.83095033  0.70031099  0.05463675     0.35770
H1829       H  0.87616625  0.64201702  0.04159835     0.16140
O1830       O  0.87813246  0.63279039  0.09155521    -0.60780
H1831       H  0.81599658  0.71275878  0.09535492     0.16160
O1832       O  0.83663442  0.73751564  0.04486739    -0.60880
H1833       H  0.81945692  0.74605047  0.05620610     0.43150
H1834       H  0.90845347  0.65523781  0.09216678     0.43110
C1835       C  0.83748735  0.67224841  0.50472370    -0.02980
C1836       C  0.83341059  0.66661553  0.62905487    -0.02980
C1837       C  0.65879838  0.83742088  0.87743192    -0.02980
C1838       C  0.66094364  0.84406289  0.75400893    -0.02980
N1839       N  0.97233962  0.56481828  0.97934831    -0.06610
N1840       N  0.96467524  0.59606923  0.97991791    -0.58730
N1841       N  0.98002895  0.98965354  0.51195419    -0.06290
N1842       N  0.97173277  0.97423856  0.53707941    -0.60850
N1843       N  0.51561446  0.52632157  0.51209654    -0.05880
N1844       N  0.53209281  0.53644613  0.53740344    -0.58700
N1845       N  0.93663234  0.52835011  0.97998121    -0.05560
N1846       N  0.90398334  0.53401342  0.98114311    -0.61210
C1847       C  0.92188465  0.57636213  0.98109509     0.95570
C1848       C  0.00467565  0.00339261  0.55272156     0.95350
N1849       N  0.94480561  0.89922316  0.94562569    -0.06790
N1850       N  0.93671615  0.86013590  0.94504544    -0.59300
N1851       N  0.89183287  0.94809126  0.94111467    -0.04910
N1852       N  0.85190869  0.93827850  0.94193200    -0.60560
N1853       N  0.90108076  0.93874378  0.91655039    -0.06820
N1854       N  0.86746326  0.92236025  0.90016375    -0.59570
N1855       N  0.93653262  0.90949508  0.97022022    -0.04550
N1856       N  0.92263764  0.87739471  0.98689422    -0.60640
Mn1857     Mn  0.93572102  0.96839901  0.97640674     1.18440
C1858       C  0.92358753  0.84717630  0.97093864     0.97650
C1859       C  0.83712755  0.92246950  0.91626045     0.98320
N1860       N  0.59318920  0.56798662  0.97018060    -0.06840
N1861       N  0.62625619  0.58389223  0.98700079    -0.63150
N1862       N  0.56033084  0.59791664  0.91590441    -0.05640
N1863       N  0.57614463  0.63003094  0.89915160    -0.63820
N1864       N  0.55155398  0.60876124  0.94012430    -0.06350
N1865       N  0.56151936  0.64850511  0.94037374    -0.63420
N1866       N  0.60241118  0.55712641  0.94611966    -0.05240
N1867       N  0.64173509  0.56503268  0.94622477    -0.64110
Mn1868     Mn  0.53365009  0.56775343  0.97597758     1.10660
C1869       C  0.65613929  0.58135595  0.97190627     0.98870
C1870       C  0.57652490  0.66128891  0.91467228     0.98950
N1871       N  0.97932309  0.98206073  0.87405506    -0.06360
N1872       N  0.96279862  0.97274932  0.84874344    -0.61730
N1873       N  0.55787630  0.97817337  0.90611189    -0.05670
N1874       N  0.59004378  0.97177055  0.90479727    -0.58460
N1875       N  0.52180579  0.94210788  0.90592516    -0.06990
N1876       N  0.52866372  0.91036313  0.90456641    -0.61300
N1877       N  0.51552713  0.51821125  0.87434170    -0.05970
N1878       N  0.52406776  0.53415183  0.84935924    -0.58480
Mn1879     Mn  0.96111966  0.93993474  0.90991858     1.20190
Mn1880     Mn  0.55963242  0.53832214  0.91010625     1.10090
Cl1881     Cl  0.99747725  0.50364991  0.94306924    -0.86450
C1882       C  0.99074784  0.50583275  0.83361139     0.95880
C1883       C  0.57141939  0.92930809  0.90387690     0.95680
N1884       N  0.90124680  0.93986125  0.71799887    -0.06610
N1885       N  0.86784403  0.92455942  0.73433938    -0.58730
N1886       N  0.93639721  0.91015253  0.66278941    -0.06290
N1887       N  0.92062701  0.87706659  0.64553990    -0.60850
N1888       N  0.94590118  0.90070976  0.68671281    -0.05880
N1889       N  0.93710279  0.86135537  0.68613698    -0.58700
N1890       N  0.89197707  0.94909229  0.69391696    -0.05560
N1891       N  0.85238578  0.94018630  0.69330389    -0.61210
C1892       C  0.83774123  0.92514110  0.71859633     0.95570
C1893       C  0.92217688  0.84725370  0.66026328     0.95350
N1894       N  0.51527695  0.52711634  0.62471987    -0.06790
N1895       N  0.53180434  0.53701524  0.59965346    -0.59300
N1896       N  0.93508296  0.52852122  0.65711862    -0.04910
N1897       N  0.90226564  0.53394258  0.65587454    -0.60560
N1898       N  0.97058829  0.56514725  0.65855588    -0.06820
N1899       N  0.96269236  0.59621278  0.65845778    -0.59570
N1900       N  0.97987656  0.99024091  0.62377640    -0.04550
N1901       N  0.97181108  0.97446350  0.59816002    -0.60640
Mn1902     Mn  0.93534800  0.96901547  0.65884800     1.18440
C1903       C  0.00465875  0.00360188  0.58333927     0.97650
C1904       C  0.91991951  0.57635391  0.65685277     0.98320
N1905       N  0.52417142  0.94609935  0.72697403    -0.06840
N1906       N  0.53272965  0.91540366  0.72673936    -0.63150
N1907       N  0.51482997  0.52064689  0.76238896    -0.05640
N1908       N  0.52325021  0.53582958  0.78816489    -0.63820
N1909       N  0.97936199  0.98381879  0.76135330    -0.06350
N1910       N  0.96315342  0.97342107  0.78646998    -0.63420
N1911       N  0.55943615  0.98297687  0.72853033    -0.05240
N1912       N  0.59260009  0.97821055  0.72964008    -0.64110
Mn1913     Mn  0.96211085  0.94194387  0.72382369     1.10660
C1914       C  0.57558101  0.93597680  0.72844690     0.98870
C1915       C  0.99053608  0.50641195  0.80296859     0.98950
N1916       N  0.54764934  0.61008513  0.69948870    -0.06360
N1917       N  0.55524965  0.64904896  0.70044716    -0.61730
N1918       N  0.60271691  0.56251124  0.69187926    -0.05670
N1919       N  0.64240493  0.57150074  0.69204322    -0.58460
N1920       N  0.59297045  0.57160039  0.66793265    -0.06990
N1921       N  0.62595804  0.58688176  0.65129274    -0.61300
N1922       N  0.55767277  0.60074259  0.72326280    -0.05970
N1923       N  0.57297552  0.63357441  0.74067110    -0.58480
Mn1924     Mn  0.53218652  0.56915898  0.66215278     1.20190
Mn1925     Mn  0.55917246  0.54222921  0.72707884     1.10090
Cl1926     Cl  0.99718697  0.50557688  0.69298854    -0.86450
C1927       C  0.57022643  0.66303662  0.72634672     0.95880
C1928       C  0.65650312  0.58647569  0.66659313     0.95680
C1929       C  0.63811525  0.79667720  0.74440661    -0.05950
C1930       C  0.59372366  0.77174189  0.74841975    -0.33380
C1931       C  0.57112226  0.72832477  0.74260416     0.35870
C1932       C  0.59275446  0.70793738  0.73424991    -0.06310
C1933       C  0.63674734  0.73101765  0.73212154    -0.33280
C1934       C  0.65966549  0.77463135  0.73728195     0.35770
H1935       H  0.57621467  0.78626476  0.75587761     0.16140
O1936       O  0.52789274  0.70609871  0.74521951    -0.60780
H1937       H  0.65367927  0.71498375  0.72653086     0.16160
O1938       O  0.70301024  0.79388459  0.73812831    -0.60880
H1939       H  0.71171812  0.79070900  0.71914192     0.43150
H1940       H  0.52269804  0.69690197  0.76465845     0.43110
C1941       C  0.64164157  0.86947122  0.74207236    -0.05950
C1942       C  0.65772884  0.91113983  0.75246944    -0.33380
C1943       C  0.63745881  0.93351528  0.74735994     0.35870
C1944       C  0.60059252  0.91509917  0.73094036    -0.06310
C1945       C  0.58755632  0.87627140  0.71736504    -0.33280
C1946       C  0.60908393  0.85452213  0.72161153     0.35770
H1947       H  0.68409539  0.92528599  0.76677389     0.16140
O1948       O  0.65257640  0.97233876  0.76004868    -0.60780
H1949       H  0.56096517  0.86303920  0.70305573     0.16160
O1950       O  0.59855713  0.81976945  0.70505129    -0.60880
H1951       H  0.61752450  0.83064108  0.68884633     0.43150
H1952       H  0.63883346  0.96656909  0.77844504     0.43110
C1953       C  0.70811241  0.86951135  0.74489392    -0.05950
C1954       C  0.71770296  0.86864187  0.71662365    -0.33380
C1955       C  0.75969683  0.88685372  0.70768622     0.35870
C1956       C  0.79330716  0.90780146  0.72690261    -0.06310
C1957       C  0.78431867  0.91293933  0.75430283    -0.33280
C1958       C  0.74246346  0.89632041  0.76297004     0.35770
H1959       H  0.69236643  0.85131414  0.70167711     0.16140
O1960       O  0.76735990  0.88240304  0.68034026    -0.60780
H1961       H  0.80994968  0.93152204  0.76887462     0.16160
O1962       O  0.73582154  0.90872699  0.78853019    -0.60880
H1963       H  0.74767211  0.93957135  0.78780900     0.43150
H1964       H  0.76788421  0.85584041  0.67900726     0.43110
C1965       C  0.63583257  0.78993271  0.88683700    -0.05950
C1966       C  0.63613242  0.78060429  0.91505289    -0.33380
C1967       C  0.61707940  0.73938903  0.92436359     0.35870
C1968       C  0.59583415  0.70514189  0.90570505    -0.06310
C1969       C  0.59200641  0.71284719  0.87820338    -0.33280
C1970       C  0.60958377  0.75402030  0.86885975     0.35770
H1971       H  0.64892316  0.80442430  0.93098750     0.16140
O1972       O  0.62035546  0.73312430  0.95186210    -0.60780
H1973       H  0.57301278  0.68656345  0.86402436     0.16160
O1974       O  0.59532764  0.75803590  0.84358214    -0.60880
H1975       H  0.60281823  0.74244186  0.82984279     0.43150
H1976       H  0.59732830  0.73534629  0.96109178     0.43110
C1977       C  0.59454577  0.90627085  0.90119409    -0.05950
C1978       C  0.57181137  0.86216945  0.90066746    -0.33380
C1979       C  0.59167420  0.83907556  0.89482083     0.35870
C1980       C  0.63615125  0.86007000  0.88996233    -0.06310
C1981       C  0.65863319  0.90471266  0.89136268    -0.33280
C1982       C  0.63862803  0.92747636  0.89742129     0.35770
H1983       H  0.53779833  0.84514459  0.90354302     0.16140
O1984       O  0.56631373  0.79618835  0.89216360    -0.60780
H1985       H  0.69197680  0.92275547  0.88647426     0.16160
O1986       O  0.66243590  0.97063863  0.89797505    -0.60880
H1987       H  0.67286564  0.97874170  0.91733201     0.43150
H1988       H  0.55333384  0.79080911  0.87344949     0.43110
C1989       C  0.70703703  0.86340188  0.88739908    -0.05950
C1990       C  0.71717886  0.87113264  0.91604827    -0.33380
C1991       C  0.75892787  0.89004466  0.92601102     0.35870
C1992       C  0.79267259  0.90431697  0.90733486    -0.06310
C1993       C  0.78412218  0.90334180  0.87934023    -0.33280
C1994       C  0.74262441  0.88593522  0.86949060     0.35770
H1995       H  0.69343594  0.86611993  0.93109376     0.16140
O1996       O  0.76611542  0.89421779  0.95404603    -0.60780
H1997       H  0.81014344  0.91861159  0.86494073     0.16160
O1998       O  0.73840343  0.89728302  0.84356245    -0.60880
H1999       H  0.75473538  0.88891864  0.83118586     0.43150
H2000       H  0.76745919  0.92090578  0.95966129     0.43110
C2001       C  0.65661308  0.83732836  0.84524636    -0.05950
C2002       C  0.63286922  0.85159065  0.83122888    -0.33380
C2003       C  0.63071862  0.85098560  0.80239964     0.35870
C2004       C  0.65663335  0.84066663  0.78607773    -0.06310
C2005       C  0.67737310  0.82301349  0.79993743    -0.33280
C2006       C  0.67634844  0.81990404  0.82870903     0.35770
H2007       H  0.61383804  0.86180820  0.84217343     0.16140
O2008       O  0.60143047  0.85866740  0.79088338    -0.60780
H2009       H  0.69565059  0.81236907  0.78841062     0.16160
O2010       O  0.69758428  0.80271407  0.84079813    -0.60880
H2011       H  0.68214987  0.77251362  0.83497333     0.43150
H2012       H  0.57390524  0.83191930  0.79216809     0.43110
C2013       C  0.70070130  0.60388300  0.65737209    -0.05950
C2014       C  0.70885956  0.60530722  0.62908140    -0.33380
C2015       C  0.75023005  0.62341014  0.61908002     0.35870
C2016       C  0.78565658  0.64330037  0.63778747    -0.06310
C2017       C  0.77643450  0.63852792  0.66640552    -0.33280
C2018       C  0.73482326  0.61943096  0.67617905     0.35770
H2019       H  0.68270314  0.59117175  0.61440265     0.16140
O2020       O  0.75457958  0.61726454  0.59139313    -0.60780
H2021       H  0.80211221  0.65106624  0.68140637     0.16160
O2022       O  0.72817694  0.61800628  0.70419337    -0.60880
H2023       H  0.72781766  0.59233522  0.71006795     0.43150
H2024       H  0.74239707  0.63180135  0.58142120     0.43110
C2025       C  0.89992699  0.80234252  0.65226738    -0.05950
C2026       C  0.92047605  0.78577792  0.63682556    -0.33380
C2027       C  0.89998377  0.74259705  0.63003858     0.35870
C2028       C  0.85770877  0.71429996  0.63906628    -0.06310
C2029       C  0.83736030  0.73256768  0.65400044    -0.33280
C2030       C  0.85840811  0.77553416  0.66112421     0.35770
H2031       H  0.95266138  0.80639667  0.62997015     0.16140
O2032       O  0.92171447  0.72828139  0.61445574    -0.60780
H2033       H  0.80456543  0.71465189  0.65981672     0.16160
O2034       O  0.83754052  0.79134631  0.67619209    -0.60880
H2035       H  0.84302311  0.78852417  0.69584638     0.43150
H2036       H  0.92360387  0.73924172  0.59566418     0.43110
C2037       C  0.89561399  0.59817186  0.65468811    -0.05950
C2038       C  0.85422895  0.57610902  0.64406525    -0.33380
C2039       C  0.83277298  0.59709108  0.63762595     0.35870
C2040       C  0.85261533  0.64157335  0.64189593    -0.06310
C2041       C  0.89139223  0.66181259  0.65681721    -0.33280
C2042       C  0.91362899  0.64115390  0.66191123     0.35770
H2043       H  0.83925458  0.54275362  0.63896746     0.16140
O2044       O  0.79435827  0.57440219  0.62434384    -0.60780
H2045       H  0.90633207  0.69438142  0.66357952     0.16160
O2046       O  0.95314232  0.66352961  0.67387459    -0.60880
H2047       H  0.97259313  0.67910101  0.65856093     0.43150
H2048       H  0.77372040  0.55864204  0.63907792     0.43110
C2049       C  0.78932881  0.64938406  0.99489065    -0.05950
C2050       C  0.77246273  0.61531942  0.97498112    -0.33380
C2051       C  0.72928795  0.59190151  0.96811743     0.35870
C2052       C  0.70120558  0.60276265  0.98004565    -0.06310
C2053       C  0.71744381  0.63853121  0.99727452    -0.33280
C2054       C  0.76072488  0.66273932  0.00363223     0.35770
H2055       H  0.79241112  0.60663335  0.96365299     0.16140
O2056       O  0.71491640  0.55811994  0.94989093    -0.60780
H2057       H  0.69685253  0.64985295  0.00436263     0.16160
O2058       O  0.77490011  0.70237775  0.51421879    -0.60880
H2059       H  0.75754849  0.69912552  0.53087121     0.43150
H2060       H  0.72113911  0.57032247  0.93122870     0.43110
C2061       C  0.86228658  0.71805499  0.99454751    -0.05950
C2062       C  0.84716575  0.73027465  0.97198382    -0.33380
C2063       C  0.86737543  0.77214195  0.96406086     0.35870
C2064       C  0.90349630  0.80299047  0.97848679    -0.06310
C2065       C  0.92056820  0.79132012  0.99970274    -0.33280
C2066       C  0.90142047  0.74916801  0.50707951     0.35770
H2067       H  0.81945307  0.70756905  0.96026207     0.16140
O2068       O  0.85113052  0.78276008  0.94236750    -0.60780
H2069       H  0.94929926  0.81485548  0.51026662     0.16160
O2070       O  0.92062488  0.73900902  0.52714286    -0.60880
H2071       H  0.94223105  0.73509794  0.51733742     0.43150
H2072       H  0.83093173  0.79003604  0.95085448     0.42950
C2073       C  0.85771620  0.64624556  0.99302487    -0.05950
C2074       C  0.83835328  0.60327794  0.50026413    -0.33380
C2075       C  0.85797457  0.57984392  0.49561661     0.35870
C2076       C  0.89789779  0.59848709  0.98308522    -0.06310
C2077       C  0.91554872  0.63924850  0.97309544    -0.33280
C2078       C  0.89535791  0.66253786  0.97693161     0.35770
H2079       H  0.80899787  0.58876087  0.51176511     0.16140
O2080       O  0.83876351  0.53949215  0.50493702    -0.60780
H2081       H  0.94534776  0.65327258  0.96210873     0.16160
O2082       O  0.91339330  0.70090054  0.96478773    -0.60880
H2083       H  0.89964321  0.69508803  0.94631298     0.43150
H2084       H  0.84799819  0.54243631  0.52452103     0.43110
C2085       C  0.84003885  0.67387711  0.53753930    -0.05950
C2086       C  0.85789293  0.65359315  0.55186445    -0.33380
C2087       C  0.85716658  0.65083173  0.58051654     0.35870
C2088       C  0.83770056  0.66849600  0.59696467    -0.06310
C2089       C  0.82633559  0.69454074  0.58328107    -0.33280
C2090       C  0.83097012  0.70032517  0.55463734     0.35770
H2091       H  0.87616520  0.64201289  0.54159879     0.16140
O2092       O  0.87813096  0.63278756  0.59155602    -0.60780
H2093       H  0.81601420  0.71277364  0.59535453     0.16160
O2094       O  0.83666303  0.73753341  0.54486741    -0.60880
H2095       H  0.81949224  0.74607578  0.55620691     0.43150
H2096       H  0.90845248  0.65523350  0.59216990     0.43110
loop_ 
_geom_bond_atom_site_label_1 
_geom_bond_atom_site_label_2 
_geom_bond_distance 
_geom_bond_site_symmetry_2 
_ccdc_geom_bond_type 
C1          C251   1.587       .  S
C1          C477   1.590   1_554  S
C1          C489   1.550   1_554  S
C1          C501   1.577   1_554  S
C2          C182   1.568       .  S
C2          C194   1.576       .  S
C2          C206   1.565       .  S
C2          C254   1.557       .  S
C3          C131   1.589       .  S
C3          C146   1.560       .  S
C3          C155   1.594       .  S
C3          C167   1.558       .  S
C4           C95   1.563       .  S
C4          C107   1.561       .  S
C4          C119   1.557       .  S
C4          C170   1.559       .  S
N5            N6   1.321       .  A
N5           N11   1.316       .  A
N5        Mn1082   2.203       .  S
N6           C13   1.354       .  A
N7            N8   1.322       .  A
N7         N1581   1.316       .  A
N7         Mn285   2.208   1_554  S
N8           C14   1.353       .  A
N9           N10   1.325       .  A
N9         N1579   1.316   1_445  A
N9         Mn296   2.220   1_554  S
N10        C1586   1.355       .  A
N11          N12   1.319       .  A
N11        Mn547   2.200   1_545  S
N12          C13   1.352       .  A
C13         C242   1.478       .  S
C14        N1582   1.355       .  A
C14          C69   1.479       .  S
N15          N21   1.317       .  A
N15          N16   1.317       .  A
N15         Mn45   2.194       .  S
N16          C24   1.348       .  A
N17          N18   1.319       .  A
N17          N19   1.317       .  A
N17         Mn23   2.192       .  S
N18          C25   1.349       .  A
N19          N20   1.320       .  A
N19         Mn45   2.204       .  S
N20          C25   1.355       .  A
N21          N22   1.322       .  A
N21         Mn23   2.204       .  S
N22          C24   1.354       .  A
Mn23        N269   2.208       .  S
Mn23        N535   2.200       .  S
Mn23       Cl571   2.545       .  S
C24         C230   1.463       .  S
C25         C158   1.475       .  S
N26          N27   1.319       .  A
N26          N32   1.316       .  A
N26         Mn34   2.198       .  S
N27          C35   1.354       .  A
N28          N30   1.316       .  A
N28          N29   1.321       .  A
N28         Mn46   2.199       .  S
N29          C36   1.353       .  A
N30          N31   1.319       .  A
N30         Mn34   2.201       .  S
N31          C36   1.351       .  A
N32          N33   1.319       .  A
N32         Mn46   2.200       .  S
N33          C35   1.351       .  A
Mn34       N1053   2.203   1_455  S
Mn34        N271   2.220       .  S
Mn34      Cl1095   2.550   1_455  S
C35         C218   1.474       .  S
C36         C134   1.476       .  S
N37          N38   1.326       .  A
N37        N1615   1.317       .  A
N37         Mn45   2.224       .  S
N38         C572   1.356       .  A
N39          N40   1.319       .  A
N39          N41   1.313       .  A
N39        Mn570   2.194       .  S
N40          C49   1.353       .  A
N41          N42   1.320       .  A
N41       Mn1093   2.196   1_455  S
N42          C49   1.354       .  A
N43          N44   1.322       .  A
N43        N1609   1.317   1_445  A
N43         Mn46   2.214       .  S
N44        C1096   1.353   1_455  A
Mn45       N1089   2.196       .  S
Mn45       Cl571   2.548       .  S
Mn46        N563   2.194   1_545  S
Mn46      Cl1095   2.541   1_455  S
Cl47       Mn547   2.545   1_545  S
Cl47      Mn1082   2.550       .  S
Cl47       Mn569   2.548   1_545  S
Cl47      Mn1094   2.541       .  S
C48         N562   1.356   1_545  A
C48        N1092   1.353       .  A
C48          C81   1.482       .  S
C49         C143   1.482       .  S
N50          N51   1.322       .  A
N50          N56   1.317       .  A
N50         Mn79   2.217       .  S
N51          C58   1.357       .  A
N52          N54   1.317       .  A
N52          N53   1.323       .  A
N52         Mn68   2.209       .  S
N53          C59   1.354       .  A
N54          N55   1.318       .  A
N54         Mn79   2.196       .  S
N55          C59   1.348       .  A
N56          N57   1.317       .  A
N56         Mn68   2.186       .  S
N57          C58   1.347       .  A
C58         C122   1.473       .  S
C59         C191   1.467       .  S
N60          N61   1.325       .  A
N60        N1638   1.317   1_445  A
N60         Mn90   2.223       .  S
N61        C1641   1.355       .  A
N62          N63   1.321       .  A
N62          N64   1.314       .  A
N62        Mn592   2.208   1_545  S
N63          C70   1.355       .  A
N64          N65   1.320       .  A
N64       Mn1138   2.199       .  S
N65          C70   1.354       .  A
N66          N67   1.322       .  A
N66        N1632   1.317       .  A
N66         Mn68   2.209       .  S
N67          C69   1.353       .  A
Mn68        N586   2.208       .  S
Mn68       Cl616   2.549       .  S
C69        N1633   1.355       .  A
C70         C203   1.484       .  S
N71          N72   1.323       .  A
N71          N77   1.315       .  A
N71       Mn1127   2.211   1_455  S
N72          C80   1.355       .  A
N73          N74   1.323       .  A
N73        N1647   1.317   1_445  A
N73         Mn91   2.215       .  S
N74        C1129   1.354   1_455  A
N75          N76   1.325       .  A
N75        N1645   1.317       .  A
N75         Mn79   2.222       .  S
N76         C605   1.355       .  A
N77          N78   1.319       .  A
N77        Mn615   2.198       .  S
N78          C80   1.352       .  A
Mn79       N1119   2.211       .  S
Mn79       Cl616   2.546       .  S
C80         C110   1.479       .  S
C81        N1122   1.354       .  A
C81         N600   1.355   1_545  A
N82          N83   1.319       .  A
N82          N88   1.317       .  A
N82         Mn90   2.201       .  S
N83          C93   1.349       .  A
N84          N85   1.319       .  A
N84          N86   1.316       .  A
N84         Mn91   2.194       .  S
N85          C94   1.350       .  A
N86          N87   1.321       .  A
N86         Mn90   2.208       .  S
N87          C94   1.355       .  A
N88          N89   1.322       .  A
N88         Mn91   2.204       .  S
N89          C93   1.354       .  A
Mn90       N1112   2.199   1_455  S
Mn90      Cl1140   2.545   1_455  S
Mn91        N601   2.198   1_545  S
Mn91      Cl1140   2.551   1_455  S
Cl92       Mn592   2.549   1_545  S
Cl92       Mn603   2.546   1_545  S
Cl92      Mn1138   2.545       .  S
Cl92      Mn1139   2.551       .  S
C93          C98   1.466       .  S
C94         C179   1.478       .  S
C95          C96   1.419       .  A
C95         C100   1.431       .  A
C96          C97   1.399       .  A
C96         H101   1.082       .  S
C97          C98   1.397       .  A
C97         O102   1.371       .  S
C98          C99   1.393       .  A
C99         C100   1.400       .  A
C99         H103   1.084       .  S
C100        O104   1.372       .  S
O102        H106   0.992       .  S
O104        H105   0.993       .  S
C107        C108   1.415       .  A
C107        C112   1.423       .  A
C108        C109   1.394       .  A
C108        H113   1.078       .  S
C109        C110   1.404       .  A
C109        O114   1.372       .  S
C110        C111   1.402       .  A
C111        C112   1.406       .  A
C111        H115   1.084       .  S
C112        O116   1.370       .  S
O114        H118   0.992       .  S
O116        H117   0.991       .  S
C119        C120   1.412       .  A
C119        C124   1.423       .  A
C120        C121   1.401       .  A
C120        H125   1.083       .  S
C121        C122   1.409       .  A
C121        O126   1.372       .  S
C122        C123   1.393       .  A
C123        C124   1.398       .  A
C123        H127   1.084       .  S
C124        O128   1.368       .  S
O126        H130   0.992       .  S
O128        H129   0.992       .  S
C131        C132   1.418       .  A
C131        C136   1.443       .  A
C132        C133   1.399       .  A
C132        H137   1.064       .  S
C133        C134   1.400       .  A
C133        O138   1.372       .  S
C134        C135   1.390       .  A
C135        C136   1.402       .  A
C135        H139   1.084       .  S
C136        O140   1.374       .  S
O138        H142   0.992       .  S
O140        H141   0.993       .  S
C143        C144   1.400       .  A
C143        C148   1.405       .  A
C144        C145   1.400       .  A
C144        H149   1.084       .  S
C145        C146   1.426       .  A
C145        O150   1.370       .  S
C146        C147   1.417       .  A
C147        C148   1.396       .  A
C147        H151   1.081       .  S
C148        O152   1.371       .  S
O150        H154   0.992       .  S
O152        H153   0.992       .  S
C155        C156   1.419       .  A
C155        C160   1.435       .  A
C156        C157   1.403       .  A
C156        H161   1.075       .  S
C157        C158   1.403       .  A
C157        O162   1.371       .  S
C158        C159   1.387       .  A
C159        C160   1.398       .  A
C159        H163   1.085       .  S
C160        O164   1.367       .  S
O162        H166   0.992       .  S
O164        H165   0.993       .  S
C167        C168   1.414       .  A
C167        C172   1.420       .  A
C168        C169   1.395       .  A
C168        H173   1.079       .  S
C169        C170   1.420       .  A
C169        O174   1.371       .  S
C170        C171   1.413       .  A
C171        C172   1.397       .  A
C171        H175   1.080       .  S
C172        O176   1.375       .  S
O174        H178   0.992       .  S
O176        H177   0.992       .  S
C179        C180   1.394       .  A
C179        C184   1.407       .  A
C180        C181   1.399       .  A
C180        H185   1.084       .  S
C181        C182   1.433       .  A
C181        O186   1.372       .  S
C182        C183   1.415       .  A
C183        C184   1.400       .  A
C183        H187   1.084       .  S
C184        O188   1.371       .  S
O186        H190   0.993       .  S
O188        H189   0.992       .  S
C191        C192   1.392       .  A
C191        C196   1.399       .  A
C192        C193   1.402       .  A
C192        H197   1.084       .  S
C193        C194   1.431       .  A
C193        O198   1.372       .  S
C194        C195   1.419       .  A
C195        C196   1.398       .  A
C195        H199   1.076       .  S
C196        O200   1.372       .  S
O198        H202   0.993       .  S
O200        H201   0.992       .  S
C203        C204   1.400       .  A
C203        C208   1.407       .  A
C204        C205   1.401       .  A
C204        H209   1.083       .  S
C205        C206   1.426       .  A
C205        O210   1.371       .  S
C206        C207   1.416       .  A
C207        C208   1.401       .  A
C207        H211   1.078       .  S
C208        O212   1.372       .  S
O210        H214   0.992       .  S
O212        H213   0.992       .  S
C215        C263   1.590       .  S
C215        C216   1.427       .  A
C215        C220   1.427       .  A
C216        C217   1.401       .  A
C216        H221   1.079       .  S
C217        C218   1.399       .  A
C217        O222   1.372       .  S
C218        C219   1.391       .  A
C219        C220   1.400       .  A
C219        H223   1.084       .  S
C220        O486   1.364       .  S
O222        H226   0.992       .  S
O224        C482   1.364       .  S
O224        H225   0.993       .  S
C227        C263   1.550       .  S
C227        C228   1.413       .  A
C227        C494   1.427       .  A
C228        C229   1.395       .  A
C228        H233   1.081       .  S
C229        C230   1.403       .  A
C229        O234   1.372       .  S
C230        C231   1.394       .  A
C231        C494   1.399       .  A
C231        H497   1.084       .  S
C232        C489   1.427   1_554  A
C232        C493   1.399   1_554  A
C232        O236   1.372       .  S
O234        H238   0.992       .  S
H235        C493   1.084   1_554  S
O236        H237   0.991       .  S
C239        C263   1.577       .  S
C239        C244   1.427       .  A
C239        C502   1.422       .  A
C240        C241   1.394   1_554  A
C240        C501   1.422   1_554  A
C240        H245   1.084       .  S
C241        C504   1.403       .  A
C241        O246   1.372   1_556  S
C242        C243   1.400       .  A
C242        C503   1.403       .  A
C243        C244   1.402       .  A
C243        H247   1.084       .  S
C244        O248   1.369       .  S
O246        H250   0.992       .  S
O248        H249   0.992       .  S
C251        C252   1.418       .  A
C251        C256   1.425       .  A
C252        C253   1.390       .  A
C252        H257   1.075       .  S
C253        C254   1.417       .  A
C253        O258   1.369       .  S
C254        C255   1.411       .  A
C255        C256   1.402       .  A
C255        H259   1.083       .  S
C256        O260   1.378       .  S
O258        H262   0.992       .  S
O260        H261   0.993       .  S
C263        C513   1.587       .  S
C264        C444   1.568       .  S
C264        C456   1.576       .  S
C264        C468   1.565       .  S
C264        C516   1.557       .  S
C265        C393   1.589       .  S
C265        C408   1.560       .  S
C265        C417   1.594       .  S
C265        C429   1.558       .  S
C266        C357   1.563       .  S
C266        C369   1.561       .  S
C266        C381   1.557       .  S
C266        C432   1.559       .  S
N267        N268   1.321       .  A
N267        N273   1.316       .  A
N267      Mn1344   2.203       .  S
N268        C275   1.354       .  A
N269       N1843   1.316       .  A
N269        N270   1.322       .  A
N270        C276   1.353       .  A
N271       N1841   1.316   1_445  A
N271        N272   1.325       .  A
N272       C1848   1.355       .  A
N273        N274   1.319       .  A
N273       Mn809   2.200   1_545  S
N274        C275   1.352       .  A
C275        C504   1.478       .  S
C276       N1844   1.355       .  A
C276        C331   1.479       .  S
N277        N283   1.317       .  A
N277        N278   1.317       .  A
N277       Mn307   2.194       .  S
N278        C286   1.348       .  A
N279        N280   1.319       .  A
N279        N281   1.317       .  A
N279       Mn285   2.192       .  S
N280        C287   1.349       .  A
N281        N282   1.320       .  A
N281       Mn307   2.204       .  S
N282        C287   1.355       .  A
N283        N284   1.322       .  A
N283       Mn285   2.204       .  S
N284        C286   1.354       .  A
Mn285       N797   2.200       .  S
Mn285      Cl833   2.545       .  S
C286        C492   1.463       .  S
C287        C420   1.475       .  S
N288        N289   1.319       .  A
N288        N294   1.316       .  A
N288       Mn296   2.198       .  S
N289        C297   1.354       .  A
N290        N292   1.316       .  A
N290        N291   1.321       .  A
N290       Mn308   2.199       .  S
N291        C298   1.353       .  A
N292        N293   1.319       .  A
N292       Mn296   2.201       .  S
N293        C298   1.351       .  A
N294        N295   1.319       .  A
N294       Mn308   2.200       .  S
N295        C297   1.351       .  A
Mn296      N1315   2.203   1_455  S
Mn296     Cl1357   2.550   1_455  S
C297        C480   1.474       .  S
C298        C396   1.476       .  S
N299        N300   1.326       .  A
N299       N1877   1.317       .  A
N299       Mn307   2.224       .  S
N300        C834   1.356       .  A
N301        N302   1.319       .  A
N301        N303   1.313       .  A
N301       Mn832   2.194       .  S
N302        C311   1.353       .  A
N303        N304   1.320       .  A
N303      Mn1355   2.196   1_455  S
N304        C311   1.354       .  A
N305       N1871   1.317   1_445  A
N305        N306   1.322       .  A
N305       Mn308   2.214       .  S
N306       C1358   1.353   1_455  A
Mn307      N1351   2.196       .  S
Mn307      Cl833   2.548       .  S
Mn308       N825   2.194   1_545  S
Mn308     Cl1357   2.541   1_455  S
Cl309      Mn809   2.545   1_545  S
Cl309     Mn1344   2.550       .  S
Cl309      Mn831   2.548   1_545  S
Cl309     Mn1356   2.541       .  S
C310        N824   1.356   1_545  A
C310       N1354   1.353       .  A
C310        C343   1.482       .  S
C311        C405   1.482       .  S
N312        N313   1.322       .  A
N312        N318   1.317       .  A
N312       Mn341   2.217       .  S
N313        C320   1.357       .  A
N314        N316   1.317       .  A
N314        N315   1.323       .  A
N314       Mn330   2.209       .  S
N315        C321   1.354       .  A
N316        N317   1.318       .  A
N316       Mn341   2.196       .  S
N317        C321   1.348       .  A
N318        N319   1.317       .  A
N318       Mn330   2.186       .  S
N319        C320   1.347       .  A
C320        C384   1.473       .  S
C321        C453   1.467       .  S
N322       N1900   1.317   1_445  A
N322        N323   1.325       .  A
N322       Mn352   2.223       .  S
N323       C1903   1.355       .  A
N324        N325   1.321       .  A
N324        N326   1.314       .  A
N324       Mn854   2.208   1_545  S
N325        C332   1.355       .  A
N326        N327   1.320       .  A
N326      Mn1400   2.199       .  S
N327        C332   1.354       .  A
N328       N1894   1.317       .  A
N328        N329   1.322       .  A
N328       Mn330   2.209       .  S
N329        C331   1.353       .  A
Mn330       N848   2.208       .  S
Mn330      Cl878   2.549       .  S
C331       N1895   1.355       .  A
C332        C465   1.484       .  S
N333        N334   1.323       .  A
N333        N339   1.315       .  A
N333      Mn1389   2.211   1_455  S
N334        C342   1.355       .  A
N335       N1909   1.317   1_445  A
N335        N336   1.323       .  A
N335       Mn353   2.215       .  S
N336       C1391   1.354   1_455  A
N337       N1907   1.317       .  A
N337        N338   1.325       .  A
N337       Mn341   2.222       .  S
N338        C867   1.355       .  A
N339        N340   1.319       .  A
N339       Mn877   2.198       .  S
N340        C342   1.352       .  A
Mn341      N1381   2.211       .  S
Mn341      Cl878   2.546       .  S
C342        C372   1.479       .  S
C343       N1384   1.354       .  A
C343        N862   1.355   1_545  A
N344        N345   1.319       .  A
N344        N350   1.317       .  A
N344       Mn352   2.201       .  S
N345        C355   1.349       .  A
N346        N347   1.319       .  A
N346        N348   1.316       .  A
N346       Mn353   2.194       .  S
N347        C356   1.350       .  A
N348        N349   1.321       .  A
N348       Mn352   2.208       .  S
N349        C356   1.355       .  A
N350        N351   1.322       .  A
N350       Mn353   2.204       .  S
N351        C355   1.354       .  A
Mn352      N1374   2.199   1_455  S
Mn352     Cl1402   2.545   1_455  S
Mn353       N863   2.198   1_545  S
Mn353     Cl1402   2.551   1_455  S
Cl354      Mn854   2.549   1_545  S
Cl354      Mn865   2.546   1_545  S
Cl354     Mn1400   2.545       .  S
Cl354     Mn1401   2.551       .  S
C355        C360   1.466       .  S
C356        C441   1.478       .  S
C357        C358   1.419       .  A
C357        C362   1.431       .  A
C358        C359   1.399       .  A
C358        H363   1.082       .  S
C359        C360   1.397       .  A
C359        O364   1.371       .  S
C360        C361   1.393       .  A
C361        C362   1.400       .  A
C361        H365   1.084       .  S
C362        O366   1.372       .  S
O364        H368   0.992       .  S
O366        H367   0.993       .  S
C369        C370   1.415       .  A
C369        C374   1.423       .  A
C370        C371   1.394       .  A
C370        H375   1.078       .  S
C371        C372   1.404       .  A
C371        O376   1.372       .  S
C372        C373   1.402       .  A
C373        C374   1.406       .  A
C373        H377   1.084       .  S
C374        O378   1.370       .  S
O376        H380   0.992       .  S
O378        H379   0.991       .  S
C381        C382   1.412       .  A
C381        C386   1.423       .  A
C382        C383   1.401       .  A
C382        H387   1.083       .  S
C383        C384   1.409       .  A
C383        O388   1.372       .  S
C384        C385   1.393       .  A
C385        C386   1.398       .  A
C385        H389   1.084       .  S
C386        O390   1.368       .  S
O388        H392   0.992       .  S
O390        H391   0.992       .  S
C393        C394   1.418       .  A
C393        C398   1.443       .  A
C394        C395   1.399       .  A
C394        H399   1.064       .  S
C395        C396   1.400       .  A
C395        O400   1.372       .  S
C396        C397   1.390       .  A
C397        C398   1.402       .  A
C397        H401   1.084       .  S
C398        O402   1.374       .  S
O400        H404   0.992       .  S
O402        H403   0.993       .  S
C405        C406   1.400       .  A
C405        C410   1.405       .  A
C406        C407   1.400       .  A
C406        H411   1.084       .  S
C407        C408   1.426       .  A
C407        O412   1.370       .  S
C408        C409   1.417       .  A
C409        C410   1.396       .  A
C409        H413   1.081       .  S
C410        O414   1.371       .  S
O412        H416   0.992       .  S
O414        H415   0.992       .  S
C417        C418   1.419       .  A
C417        C422   1.435       .  A
C418        C419   1.403       .  A
C418        H423   1.075       .  S
C419        C420   1.403       .  A
C419        O424   1.371       .  S
C420        C421   1.387       .  A
C421        C422   1.398       .  A
C421        H425   1.085       .  S
C422        O426   1.367       .  S
O424        H428   0.992       .  S
O426        H427   0.993       .  S
C429        C430   1.414       .  A
C429        C434   1.420       .  A
C430        C431   1.395       .  A
C430        H435   1.079       .  S
C431        C432   1.420       .  A
C431        O436   1.371       .  S
C432        C433   1.413       .  A
C433        C434   1.397       .  A
C433        H437   1.080       .  S
C434        O438   1.375       .  S
O436        H440   0.992       .  S
O438        H439   0.992       .  S
C441        C442   1.394       .  A
C441        C446   1.407       .  A
C442        C443   1.399       .  A
C442        H447   1.084       .  S
C443        C444   1.433       .  A
C443        O448   1.372       .  S
C444        C445   1.415       .  A
C445        C446   1.400       .  A
C445        H449   1.084       .  S
C446        O450   1.371       .  S
O448        H452   0.993       .  S
O450        H451   0.992       .  S
C453        C454   1.392       .  A
C453        C458   1.399       .  A
C454        C455   1.402       .  A
C454        H459   1.084       .  S
C455        C456   1.431       .  A
C455        O460   1.372       .  S
C456        C457   1.419       .  A
C457        C458   1.398       .  A
C457        H461   1.076       .  S
C458        O462   1.372       .  S
O460        H464   0.993       .  S
O462        H463   0.992       .  S
C465        C466   1.400       .  A
C465        C470   1.407       .  A
C466        C467   1.401       .  A
C466        H471   1.083       .  S
C467        C468   1.426       .  A
C467        O472   1.371       .  S
C468        C469   1.416       .  A
C469        C470   1.401       .  A
C469        H473   1.078       .  S
C470        O474   1.372       .  S
O472        H476   0.992       .  S
O474        H475   0.992       .  S
C477        C478   1.427       .  A
C477        C482   1.427   1_556  A
C478        C479   1.401       .  A
C478        H483   1.079       .  S
C479        C480   1.399       .  A
C479        O484   1.372       .  S
C480        C481   1.391       .  A
C481        C482   1.400   1_556  A
C481        H485   1.084   1_556  S
O484        H488   0.992       .  S
O486        H487   0.993       .  S
C489        C490   1.413       .  A
C490        C491   1.395       .  A
C490        H495   1.081       .  S
C491        C492   1.403       .  A
C491        O496   1.372       .  S
C492        C493   1.394       .  A
C494        O498   1.372       .  S
O496        H500   0.992       .  S
O498        H499   0.991       .  S
C501        C506   1.427       .  A
C502        C503   1.395       .  A
C502        H507   1.084       .  S
C503        O508   1.372       .  S
C504        C505   1.400       .  A
C505        C506   1.402       .  A
C505        H509   1.084       .  S
C506        O510   1.369       .  S
O508        H512   0.992       .  S
O510        H511   0.992       .  S
C513        C514   1.418       .  A
C513        C518   1.425       .  A
C514        C515   1.390       .  A
C514        H519   1.075       .  S
C515        C516   1.417       .  A
C515        O520   1.369       .  S
C516        C517   1.411       .  A
C517        C518   1.402       .  A
C517        H521   1.083       .  S
C518        O522   1.378       .  S
O520        H524   0.992       .  S
O522        H523   0.993       .  S
C525       C1001   1.590   1_554  S
C525       C1013   1.550   1_554  S
C525       C1025   1.577   1_554  S
C525        C775   1.587       .  S
C526        C706   1.568       .  S
C526        C718   1.576       .  S
C526        C730   1.565       .  S
C526        C778   1.557       .  S
C527        C655   1.589       .  S
C527        C670   1.560       .  S
C527        C679   1.594       .  S
C527        C691   1.558       .  S
C528        C619   1.563       .  S
C528        C631   1.561       .  S
C528        C643   1.557       .  S
C528        C694   1.559       .  S
N529        N530   1.321       .  A
N529        N535   1.316       .  A
N529      Mn1606   2.203       .  S
N530        C537   1.354       .  A
N531       N1057   1.316   1_565  A
N531        N532   1.322       .  A
N531       Mn809   2.208   1_554  S
N532        C538   1.353   1_565  A
N533       N1055   1.316   1_455  A
N533        N534   1.325       .  A
N533       Mn820   2.220   1_554  S
N534       C1062   1.355       .  A
N535        N536   1.319       .  A
N536        C537   1.352       .  A
C537        C766   1.478       .  S
C538       N1058   1.355       .  A
C538        C593   1.479       .  S
N539        N545   1.317       .  A
N539        N540   1.317       .  A
N539       Mn569   2.194       .  S
N540        C548   1.348       .  A
N541        N542   1.319       .  A
N541        N543   1.317       .  A
N541       Mn547   2.192       .  S
N542        C549   1.349       .  A
N543        N544   1.320       .  A
N543       Mn569   2.204       .  S
N544        C549   1.355       .  A
N545        N546   1.322       .  A
N545       Mn547   2.204       .  S
N546        C548   1.354       .  A
Mn547       N793   2.208       .  S
C548        C754   1.463       .  S
C549        C682   1.475       .  S
N550        N551   1.319       .  A
N550        N556   1.316       .  A
N550       Mn558   2.198       .  S
N551        C559   1.354       .  A
N552        N554   1.316       .  A
N552        N553   1.321       .  A
N552       Mn570   2.199       .  S
N553        C560   1.353       .  A
N554        N555   1.319       .  A
N554       Mn558   2.201       .  S
N555        C560   1.351       .  A
N556        N557   1.319       .  A
N556       Mn570   2.200       .  S
N557        C559   1.351       .  A
Mn558      N1577   2.203   1_455  S
Mn558       N795   2.220       .  S
Mn558     Cl1619   2.550   1_455  S
C559        C742   1.474       .  S
C560        C658   1.476       .  S
N561        N562   1.326       .  A
N561       N1091   1.317   1_565  A
N561       Mn569   2.224       .  S
N563        N564   1.319       .  A
N563        N565   1.313       .  A
N564        C573   1.353       .  A
N565        N566   1.320       .  A
N565      Mn1617   2.196   1_455  S
N566        C573   1.354       .  A
N567       N1085   1.317   1_455  A
N567        N568   1.322       .  A
N567       Mn570   2.214       .  S
N568       C1620   1.353   1_455  A
Mn569      N1613   2.196       .  S
Mn570     Cl1619   2.541   1_455  S
Cl571     Mn1606   2.550       .  S
Cl571     Mn1618   2.541       .  S
C572       N1616   1.353       .  A
C572        C605   1.482       .  S
C573        C667   1.482       .  S
N574        N575   1.322       .  A
N574        N580   1.317       .  A
N574       Mn603   2.217       .  S
N575        C582   1.357       .  A
N576        N578   1.317       .  A
N576        N577   1.323       .  A
N576       Mn592   2.209       .  S
N577        C583   1.354       .  A
N578        N579   1.318       .  A
N578       Mn603   2.196       .  S
N579        C583   1.348       .  A
N580        N581   1.317       .  A
N580       Mn592   2.186       .  S
N581        C582   1.347       .  A
C582        C646   1.473       .  S
C583        C715   1.467       .  S
N584       N1114   1.317   1_455  A
N584        N585   1.325       .  A
N584       Mn614   2.223       .  S
N585       C1117   1.355       .  A
N586        N587   1.321       .  A
N586        N588   1.314       .  A
N587        C594   1.355       .  A
N588        N589   1.320       .  A
N588      Mn1662   2.199       .  S
N589        C594   1.354       .  A
N590       N1108   1.317   1_565  A
N590        N591   1.322       .  A
N590       Mn592   2.209       .  S
N591        C593   1.353   1_565  A
C593       N1109   1.355       .  A
C594        C727   1.484       .  S
N595        N596   1.323       .  A
N595        N601   1.315       .  A
N595      Mn1651   2.211   1_455  S
N596        C604   1.355       .  A
N597       N1123   1.317   1_455  A
N597        N598   1.323       .  A
N597       Mn615   2.215       .  S
N598       C1653   1.354   1_455  A
N599       N1121   1.317   1_565  A
N599        N600   1.325       .  A
N599       Mn603   2.222       .  S
N601        N602   1.319       .  A
N602        C604   1.352       .  A
Mn603      N1643   2.211       .  S
C604        C634   1.479       .  S
C605       N1646   1.354       .  A
N606        N607   1.319       .  A
N606        N612   1.317       .  A
N606       Mn614   2.201       .  S
N607        C617   1.349       .  A
N608        N609   1.319       .  A
N608        N610   1.316       .  A
N608       Mn615   2.194       .  S
N609        C618   1.350       .  A
N610        N611   1.321       .  A
N610       Mn614   2.208       .  S
N611        C618   1.355       .  A
N612        N613   1.322       .  A
N612       Mn615   2.204       .  S
N613        C617   1.354       .  A
Mn614      N1636   2.199   1_455  S
Mn614     Cl1664   2.545   1_455  S
Mn615     Cl1664   2.551   1_455  S
Cl616     Mn1662   2.545       .  S
Cl616     Mn1663   2.551       .  S
C617        C622   1.466       .  S
C618        C703   1.478       .  S
C619        C620   1.419       .  A
C619        C624   1.431       .  A
C620        C621   1.399       .  A
C620        H625   1.082       .  S
C621        C622   1.397       .  A
C621        O626   1.371       .  S
C622        C623   1.393       .  A
C623        C624   1.400       .  A
C623        H627   1.084       .  S
C624        O628   1.372       .  S
O626        H630   0.992       .  S
O628        H629   0.993       .  S
C631        C632   1.415       .  A
C631        C636   1.423       .  A
C632        C633   1.394       .  A
C632        H637   1.078       .  S
C633        C634   1.404       .  A
C633        O638   1.372       .  S
C634        C635   1.402       .  A
C635        C636   1.406       .  A
C635        H639   1.084       .  S
C636        O640   1.370       .  S
O638        H642   0.992       .  S
O640        H641   0.991       .  S
C643        C644   1.412       .  A
C643        C648   1.423       .  A
C644        C645   1.401       .  A
C644        H649   1.083       .  S
C645        C646   1.409       .  A
C645        O650   1.372       .  S
C646        C647   1.393       .  A
C647        C648   1.398       .  A
C647        H651   1.084       .  S
C648        O652   1.368       .  S
O650        H654   0.992       .  S
O652        H653   0.992       .  S
C655        C656   1.418       .  A
C655        C660   1.443       .  A
C656        C657   1.399       .  A
C656        H661   1.064       .  S
C657        C658   1.400       .  A
C657        O662   1.372       .  S
C658        C659   1.390       .  A
C659        C660   1.402       .  A
C659        H663   1.084       .  S
C660        O664   1.374       .  S
O662        H666   0.992       .  S
O664        H665   0.993       .  S
C667        C668   1.400       .  A
C667        C672   1.405       .  A
C668        C669   1.400       .  A
C668        H673   1.084       .  S
C669        C670   1.426       .  A
C669        O674   1.370       .  S
C670        C671   1.417       .  A
C671        C672   1.396       .  A
C671        H675   1.081       .  S
C672        O676   1.371       .  S
O674        H678   0.992       .  S
O676        H677   0.992       .  S
C679        C680   1.419       .  A
C679        C684   1.435       .  A
C680        C681   1.403       .  A
C680        H685   1.075       .  S
C681        C682   1.403       .  A
C681        O686   1.371       .  S
C682        C683   1.387       .  A
C683        C684   1.398       .  A
C683        H687   1.085       .  S
C684        O688   1.367       .  S
O686        H690   0.992       .  S
O688        H689   0.993       .  S
C691        C692   1.414       .  A
C691        C696   1.420       .  A
C692        C693   1.395       .  A
C692        H697   1.079       .  S
C693        C694   1.420       .  A
C693        O698   1.371       .  S
C694        C695   1.413       .  A
C695        C696   1.397       .  A
C695        H699   1.080       .  S
C696        O700   1.375       .  S
O698        H702   0.992       .  S
O700        H701   0.992       .  S
C703        C704   1.394       .  A
C703        C708   1.407       .  A
C704        C705   1.399       .  A
C704        H709   1.084       .  S
C705        C706   1.433       .  A
C705        O710   1.372       .  S
C706        C707   1.415       .  A
C707        C708   1.400       .  A
C707        H711   1.084       .  S
C708        O712   1.371       .  S
O710        H714   0.993       .  S
O712        H713   0.992       .  S
C715        C716   1.392       .  A
C715        C720   1.399       .  A
C716        C717   1.402       .  A
C716        H721   1.084       .  S
C717        C718   1.431       .  A
C717        O722   1.372       .  S
C718        C719   1.419       .  A
C719        C720   1.398       .  A
C719        H723   1.076       .  S
C720        O724   1.372       .  S
O722        H726   0.993       .  S
O724        H725   0.992       .  S
C727        C728   1.400       .  A
C727        C732   1.407       .  A
C728        C729   1.401       .  A
C728        H733   1.083       .  S
C729        C730   1.426       .  A
C729        O734   1.371       .  S
C730        C731   1.416       .  A
C731        C732   1.401       .  A
C731        H735   1.078       .  S
C732        O736   1.372       .  S
O734        H738   0.992       .  S
O736        H737   0.992       .  S
C739        C787   1.590       .  S
C739        C740   1.427       .  A
C739        C744   1.427       .  A
C740        C741   1.401       .  A
C740        H745   1.079       .  S
C741        C742   1.399       .  A
C741        O746   1.372       .  S
C742        C743   1.391       .  A
C743        C744   1.400       .  A
C743        H747   1.084       .  S
C744       O1010   1.364       .  S
O746        H750   0.992       .  S
O748       C1006   1.364       .  S
O748        H749   0.993       .  S
C751        C787   1.550       .  S
C751        C752   1.413       .  A
C751       C1018   1.427       .  A
C752        C753   1.395       .  A
C752        H757   1.081       .  S
C753        C754   1.403       .  A
C753        O758   1.372       .  S
C754        C755   1.394       .  A
C755       C1018   1.399       .  A
C755       H1021   1.084       .  S
C756       C1013   1.427   1_554  A
C756       C1017   1.399   1_554  A
C756        O760   1.372       .  S
O758        H762   0.992       .  S
H759       C1017   1.084   1_554  S
O760        H761   0.991       .  S
C763        C787   1.577       .  S
C763       C1026   1.422       .  A
C763        C768   1.427       .  A
C764       C1025   1.422   1_554  A
C764        C765   1.394   1_554  A
C764        H769   1.084       .  S
C765       C1028   1.403       .  A
C765        O770   1.372   1_556  S
C766       C1027   1.403       .  A
C766        C767   1.400       .  A
C767        C768   1.402       .  A
C767        H771   1.084       .  S
C768        O772   1.369       .  S
O770        H774   0.992       .  S
O772        H773   0.992       .  S
C775        C776   1.418       .  A
C775        C780   1.425       .  A
C776        C777   1.390       .  A
C776        H781   1.075       .  S
C777        C778   1.417       .  A
C777        O782   1.369       .  S
C778        C779   1.411       .  A
C779        C780   1.402       .  A
C779        H783   1.083       .  S
C780        O784   1.378       .  S
O782        H786   0.992       .  S
O784        H785   0.993       .  S
C787       C1037   1.587       .  S
C788        C968   1.568       .  S
C788        C980   1.576       .  S
C788        C992   1.565       .  S
C788       C1040   1.557       .  S
C789        C917   1.589       .  S
C789        C932   1.560       .  S
C789        C941   1.594       .  S
C789        C953   1.558       .  S
C790        C881   1.563       .  S
C790        C893   1.561       .  S
C790        C905   1.557       .  S
C790        C956   1.559       .  S
N791        N792   1.321       .  A
N791        N797   1.316       .  A
N791      Mn1868   2.203       .  S
N792        C799   1.354       .  A
N793       N1319   1.316   1_565  A
N793        N794   1.322       .  A
N794        C800   1.353   1_565  A
N795       N1317   1.316   1_455  A
N795        N796   1.325       .  A
N796       C1324   1.355       .  A
N797        N798   1.319       .  A
N798        C799   1.352       .  A
C799       C1028   1.478       .  S
C800       N1320   1.355       .  A
C800        C855   1.479       .  S
N801        N807   1.317       .  A
N801        N802   1.317       .  A
N801       Mn831   2.194       .  S
N802        C810   1.348       .  A
N803        N804   1.319       .  A
N803        N805   1.317       .  A
N803       Mn809   2.192       .  S
N804        C811   1.349       .  A
N805        N806   1.320       .  A
N805       Mn831   2.204       .  S
N806        C811   1.355       .  A
N807        N808   1.322       .  A
N807       Mn809   2.204       .  S
N808        C810   1.354       .  A
C810       C1016   1.463       .  S
C811        C944   1.475       .  S
N812        N813   1.319       .  A
N812        N818   1.316       .  A
N812       Mn820   2.198       .  S
N813        C821   1.354       .  A
N814        N816   1.316       .  A
N814        N815   1.321       .  A
N814       Mn832   2.199       .  S
N815        C822   1.353       .  A
N816        N817   1.319       .  A
N816       Mn820   2.201       .  S
N817        C822   1.351       .  A
N818        N819   1.319       .  A
N818       Mn832   2.200       .  S
N819        C821   1.351       .  A
Mn820      N1839   2.203   1_455  S
Mn820     Cl1881   2.550   1_455  S
C821       C1004   1.474       .  S
C822        C920   1.476       .  S
N823        N824   1.326       .  A
N823       N1353   1.317   1_565  A
N823       Mn831   2.224       .  S
N825        N826   1.319       .  A
N825        N827   1.313       .  A
N826        C835   1.353       .  A
N827        N828   1.320       .  A
N827      Mn1879   2.196   1_455  S
N828        C835   1.354       .  A
N829       N1347   1.317   1_455  A
N829        N830   1.322       .  A
N829       Mn832   2.214       .  S
N830       C1882   1.353   1_455  A
Mn831      N1875   2.196       .  S
Mn832     Cl1881   2.541   1_455  S
Cl833     Mn1868   2.550       .  S
Cl833     Mn1880   2.541       .  S
C834       N1878   1.353       .  A
C834        C867   1.482       .  S
C835        C929   1.482       .  S
N836        N837   1.322       .  A
N836        N842   1.317       .  A
N836       Mn865   2.217       .  S
N837        C844   1.357       .  A
N838        N840   1.317       .  A
N838        N839   1.323       .  A
N838       Mn854   2.209       .  S
N839        C845   1.354       .  A
N840        N841   1.318       .  A
N840       Mn865   2.196       .  S
N841        C845   1.348       .  A
N842        N843   1.317       .  A
N842       Mn854   2.186       .  S
N843        C844   1.347       .  A
C844        C908   1.473       .  S
C845        C977   1.467       .  S
N846       N1376   1.317   1_455  A
N846        N847   1.325       .  A
N846       Mn876   2.223       .  S
N847       C1379   1.355       .  A
N848        N849   1.321       .  A
N848        N850   1.314       .  A
N849        C856   1.355       .  A
N850        N851   1.320       .  A
N850      Mn1924   2.199       .  S
N851        C856   1.354       .  A
N852       N1370   1.317   1_565  A
N852        N853   1.322       .  A
N852       Mn854   2.209       .  S
N853        C855   1.353   1_565  A
C855       N1371   1.355       .  A
C856        C989   1.484       .  S
N857        N858   1.323       .  A
N857        N863   1.315       .  A
N857      Mn1913   2.211   1_455  S
N858        C866   1.355       .  A
N859       N1385   1.317   1_455  A
N859        N860   1.323       .  A
N859       Mn877   2.215       .  S
N860       C1915   1.354   1_455  A
N861       N1383   1.317   1_565  A
N861        N862   1.325       .  A
N861       Mn865   2.222       .  S
N863        N864   1.319       .  A
N864        C866   1.352       .  A
Mn865      N1905   2.211       .  S
C866        C896   1.479       .  S
C867       N1908   1.354       .  A
N868        N869   1.319       .  A
N868        N874   1.317       .  A
N868       Mn876   2.201       .  S
N869        C879   1.349       .  A
N870        N871   1.319       .  A
N870        N872   1.316       .  A
N870       Mn877   2.194       .  S
N871        C880   1.350       .  A
N872        N873   1.321       .  A
N872       Mn876   2.208       .  S
N873        C880   1.355       .  A
N874        N875   1.322       .  A
N874       Mn877   2.204       .  S
N875        C879   1.354       .  A
Mn876      N1898   2.199   1_455  S
Mn876     Cl1926   2.545   1_455  S
Mn877     Cl1926   2.551   1_455  S
Cl878     Mn1924   2.545       .  S
Cl878     Mn1925   2.551       .  S
C879        C884   1.466       .  S
C880        C965   1.478       .  S
C881        C882   1.419       .  A
C881        C886   1.431       .  A
C882        C883   1.399       .  A
C882        H887   1.082       .  S
C883        C884   1.397       .  A
C883        O888   1.371       .  S
C884        C885   1.393       .  A
C885        C886   1.400       .  A
C885        H889   1.084       .  S
C886        O890   1.372       .  S
O888        H892   0.992       .  S
O890        H891   0.993       .  S
C893        C894   1.415       .  A
C893        C898   1.423       .  A
C894        C895   1.394       .  A
C894        H899   1.078       .  S
C895        C896   1.404       .  A
C895        O900   1.372       .  S
C896        C897   1.402       .  A
C897        C898   1.406       .  A
C897        H901   1.084       .  S
C898        O902   1.370       .  S
O900        H904   0.992       .  S
O902        H903   0.991       .  S
C905        C906   1.412       .  A
C905        C910   1.423       .  A
C906        C907   1.401       .  A
C906        H911   1.083       .  S
C907        C908   1.409       .  A
C907        O912   1.372       .  S
C908        C909   1.393       .  A
C909        C910   1.398       .  A
C909        H913   1.084       .  S
C910        O914   1.368       .  S
O912        H916   0.992       .  S
O914        H915   0.992       .  S
C917        C918   1.418       .  A
C917        C922   1.443       .  A
C918        C919   1.399       .  A
C918        H923   1.064       .  S
C919        C920   1.400       .  A
C919        O924   1.372       .  S
C920        C921   1.390       .  A
C921        C922   1.402       .  A
C921        H925   1.084       .  S
C922        O926   1.374       .  S
O924        H928   0.992       .  S
O926        H927   0.993       .  S
C929        C930   1.400       .  A
C929        C934   1.405       .  A
C930        C931   1.400       .  A
C930        H935   1.084       .  S
C931        C932   1.426       .  A
C931        O936   1.370       .  S
C932        C933   1.417       .  A
C933        C934   1.396       .  A
C933        H937   1.081       .  S
C934        O938   1.371       .  S
O936        H940   0.992       .  S
O938        H939   0.992       .  S
C941        C942   1.419       .  A
C941        C946   1.435       .  A
C942        C943   1.403       .  A
C942        H947   1.075       .  S
C943        C944   1.403       .  A
C943        O948   1.371       .  S
C944        C945   1.387       .  A
C945        C946   1.398       .  A
C945        H949   1.085       .  S
C946        O950   1.367       .  S
O948        H952   0.992       .  S
O950        H951   0.993       .  S
C953        C954   1.414       .  A
C953        C958   1.420       .  A
C954        C955   1.395       .  A
C954        H959   1.079       .  S
C955        C956   1.420       .  A
C955        O960   1.371       .  S
C956        C957   1.413       .  A
C957        C958   1.397       .  A
C957        H961   1.080       .  S
C958        O962   1.375       .  S
O960        H964   0.992       .  S
O962        H963   0.992       .  S
C965        C966   1.394       .  A
C965        C970   1.407       .  A
C966        C967   1.399       .  A
C966        H971   1.084       .  S
C967        C968   1.433       .  A
C967        O972   1.372       .  S
C968        C969   1.415       .  A
C969        C970   1.400       .  A
C969        H973   1.084       .  S
C970        O974   1.371       .  S
O972        H976   0.993       .  S
O974        H975   0.992       .  S
C977        C978   1.392       .  A
C977        C982   1.399       .  A
C978        C979   1.402       .  A
C978        H983   1.084       .  S
C979        C980   1.431       .  A
C979        O984   1.372       .  S
C980        C981   1.419       .  A
C981        C982   1.398       .  A
C981        H985   1.076       .  S
C982        O986   1.372       .  S
O984        H988   0.993       .  S
O986        H987   0.992       .  S
C989        C990   1.400       .  A
C989        C994   1.407       .  A
C990        C991   1.401       .  A
C990        H995   1.083       .  S
C991        C992   1.426       .  A
C991        O996   1.371       .  S
C992        C993   1.416       .  A
C993        C994   1.401       .  A
C993        H997   1.078       .  S
C994        O998   1.372       .  S
O996       H1000   0.992       .  S
O998        H999   0.992       .  S
C1001      C1002   1.427       .  A
C1001      C1006   1.427   1_556  A
C1002      C1003   1.401       .  A
C1002      H1007   1.079       .  S
C1003      C1004   1.399       .  A
C1003      O1008   1.372       .  S
C1004      C1005   1.391       .  A
C1005      C1006   1.400   1_556  A
C1005      H1009   1.084   1_556  S
O1008      H1012   0.992       .  S
O1010      H1011   0.993       .  S
C1013      C1014   1.413       .  A
C1014      C1015   1.395       .  A
C1014      H1019   1.081       .  S
C1015      C1016   1.403       .  A
C1015      O1020   1.372       .  S
C1016      C1017   1.394       .  A
C1018      O1022   1.372       .  S
O1020      H1024   0.992       .  S
O1022      H1023   0.991       .  S
C1025      C1030   1.427       .  A
C1026      C1027   1.395       .  A
C1026      H1031   1.084       .  S
C1027      O1032   1.372       .  S
C1028      C1029   1.400       .  A
C1029      C1030   1.402       .  A
C1029      H1033   1.084       .  S
C1030      O1034   1.369       .  S
O1032      H1036   0.992       .  S
O1034      H1035   0.992       .  S
C1037      C1038   1.418       .  A
C1037      C1042   1.425       .  A
C1038      C1039   1.390       .  A
C1038      H1043   1.075       .  S
C1039      C1040   1.417       .  A
C1039      O1044   1.369       .  S
C1040      C1041   1.411       .  A
C1041      C1042   1.402       .  A
C1041      H1045   1.083       .  S
C1042      O1046   1.378       .  S
O1044      H1048   0.992       .  S
O1046      H1047   0.993       .  S
C1049      C1525   1.590   1_554  S
C1049      C1537   1.550   1_554  S
C1049      C1549   1.577   1_554  S
C1049      C1299   1.587       .  S
C1050      C1230   1.568       .  S
C1050      C1242   1.576       .  S
C1050      C1254   1.565       .  S
C1050      C1302   1.557       .  S
C1051      C1179   1.589       .  S
C1051      C1194   1.560       .  S
C1051      C1203   1.594       .  S
C1051      C1215   1.558       .  S
C1052      C1143   1.563       .  S
C1052      C1155   1.561       .  S
C1052      C1167   1.557       .  S
C1052      C1218   1.559       .  S
N1053      N1054   1.321       .  A
N1053      N1059   1.316       .  A
N1054      C1061   1.354       .  A
N1055      N1056   1.322       .  A
N1055     Mn1333   2.208   1_554  S
N1056      C1062   1.353   1_655  A
N1057      N1058   1.325       .  A
N1057     Mn1344   2.220   1_554  S
N1059      N1060   1.319       .  A
N1059     Mn1595   2.200   1_545  S
N1060      C1061   1.352       .  A
C1061      C1290   1.478       .  S
C1062      C1117   1.479       .  S
N1063      N1069   1.317       .  A
N1063      N1064   1.317       .  A
N1063     Mn1093   2.194       .  S
N1064      C1072   1.348       .  A
N1065      N1066   1.319       .  A
N1065      N1067   1.317       .  A
N1065     Mn1071   2.192       .  S
N1066      C1073   1.349       .  A
N1067      N1068   1.320       .  A
N1067     Mn1093   2.204       .  S
N1068      C1073   1.355       .  A
N1069      N1070   1.322       .  A
N1069     Mn1071   2.204       .  S
N1070      C1072   1.354       .  A
Mn1071     N1317   2.208       .  S
Mn1071     N1583   2.200       .  S
Mn1071    Cl1619   2.545       .  S
C1072      C1278   1.463       .  S
C1073      C1206   1.475       .  S
N1074      N1075   1.319       .  A
N1074      N1080   1.316       .  A
N1074     Mn1082   2.198       .  S
N1075      C1083   1.354       .  A
N1076      N1078   1.316       .  A
N1076      N1077   1.321       .  A
N1076     Mn1094   2.199       .  S
N1077      C1084   1.353       .  A
N1078      N1079   1.319       .  A
N1078     Mn1082   2.201       .  S
N1079      C1084   1.351       .  A
N1080      N1081   1.319       .  A
N1080     Mn1094   2.200       .  S
N1081      C1083   1.351       .  A
Mn1082     N1319   2.220       .  S
C1083      C1266   1.474       .  S
C1084      C1182   1.476       .  S
N1085      N1086   1.326       .  A
N1085     Mn1093   2.224       .  S
N1086      C1620   1.356       .  A
N1087      N1088   1.319       .  A
N1087      N1089   1.313       .  A
N1087     Mn1618   2.194       .  S
N1088      C1097   1.353       .  A
N1089      N1090   1.320       .  A
N1090      C1097   1.354       .  A
N1091      N1092   1.322       .  A
N1091     Mn1094   2.214       .  S
Mn1093    Cl1619   2.548       .  S
Mn1094     N1611   2.194   1_545  S
Cl1095    Mn1595   2.545   1_545  S
Cl1095    Mn1617   2.548   1_545  S
C1096      N1610   1.356   1_545  A
C1096      C1129   1.482       .  S
C1097      C1191   1.482       .  S
N1098      N1099   1.322       .  A
N1098      N1104   1.317       .  A
N1098     Mn1127   2.217       .  S
N1099      C1106   1.357       .  A
N1100      N1102   1.317       .  A
N1100      N1101   1.323       .  A
N1100     Mn1116   2.209       .  S
N1101      C1107   1.354       .  A
N1102      N1103   1.318       .  A
N1102     Mn1127   2.196       .  S
N1103      C1107   1.348       .  A
N1104      N1105   1.317       .  A
N1104     Mn1116   2.186       .  S
N1105      C1106   1.347       .  A
C1106      C1170   1.473       .  S
C1107      C1239   1.467       .  S
N1108      N1109   1.325       .  A
N1108     Mn1138   2.223       .  S
N1110      N1111   1.321       .  A
N1110      N1112   1.314       .  A
N1110     Mn1640   2.208   1_545  S
N1111      C1118   1.355       .  A
N1112      N1113   1.320       .  A
N1113      C1118   1.354       .  A
N1114      N1115   1.322       .  A
N1114     Mn1116   2.209       .  S
N1115      C1117   1.353   1_655  A
Mn1116     N1634   2.208       .  S
Mn1116    Cl1664   2.549       .  S
C1118      C1251   1.484       .  S
N1119      N1120   1.323       .  A
N1119      N1125   1.315       .  A
N1120      C1128   1.355       .  A
N1121      N1122   1.323       .  A
N1121     Mn1139   2.215       .  S
N1123      N1124   1.325       .  A
N1123     Mn1127   2.222       .  S
N1124      C1653   1.355       .  A
N1125      N1126   1.319       .  A
N1125     Mn1663   2.198       .  S
N1126      C1128   1.352       .  A
Mn1127    Cl1664   2.546       .  S
C1128      C1158   1.479       .  S
C1129      N1648   1.355   1_545  A
N1130      N1131   1.319       .  A
N1130      N1136   1.317       .  A
N1130     Mn1138   2.201       .  S
N1131      C1141   1.349       .  A
N1132      N1133   1.319       .  A
N1132      N1134   1.316       .  A
N1132     Mn1139   2.194       .  S
N1133      C1142   1.350       .  A
N1134      N1135   1.321       .  A
N1134     Mn1138   2.208       .  S
N1135      C1142   1.355       .  A
N1136      N1137   1.322       .  A
N1136     Mn1139   2.204       .  S
N1137      C1141   1.354       .  A
Mn1139     N1649   2.198   1_545  S
Cl1140    Mn1640   2.549   1_545  S
Cl1140    Mn1651   2.546   1_545  S
C1141      C1146   1.466       .  S
C1142      C1227   1.478       .  S
C1143      C1144   1.419       .  A
C1143      C1148   1.431       .  A
C1144      C1145   1.399       .  A
C1144      H1149   1.082       .  S
C1145      C1146   1.397       .  A
C1145      O1150   1.371       .  S
C1146      C1147   1.393       .  A
C1147      C1148   1.400       .  A
C1147      H1151   1.084       .  S
C1148      O1152   1.372       .  S
O1150      H1154   0.992       .  S
O1152      H1153   0.993       .  S
C1155      C1156   1.415       .  A
C1155      C1160   1.423       .  A
C1156      C1157   1.394       .  A
C1156      H1161   1.078       .  S
C1157      C1158   1.404       .  A
C1157      O1162   1.372       .  S
C1158      C1159   1.402       .  A
C1159      C1160   1.406       .  A
C1159      H1163   1.084       .  S
C1160      O1164   1.370       .  S
O1162      H1166   0.992       .  S
O1164      H1165   0.991       .  S
C1167      C1168   1.412       .  A
C1167      C1172   1.423       .  A
C1168      C1169   1.401       .  A
C1168      H1173   1.083       .  S
C1169      C1170   1.409       .  A
C1169      O1174   1.372       .  S
C1170      C1171   1.393       .  A
C1171      C1172   1.398       .  A
C1171      H1175   1.084       .  S
C1172      O1176   1.368       .  S
O1174      H1178   0.992       .  S
O1176      H1177   0.992       .  S
C1179      C1180   1.418       .  A
C1179      C1184   1.443       .  A
C1180      C1181   1.399       .  A
C1180      H1185   1.064       .  S
C1181      C1182   1.400       .  A
C1181      O1186   1.372       .  S
C1182      C1183   1.390       .  A
C1183      C1184   1.402       .  A
C1183      H1187   1.084       .  S
C1184      O1188   1.374       .  S
O1186      H1190   0.992       .  S
O1188      H1189   0.993       .  S
C1191      C1192   1.400       .  A
C1191      C1196   1.405       .  A
C1192      C1193   1.400       .  A
C1192      H1197   1.084       .  S
C1193      C1194   1.426       .  A
C1193      O1198   1.370       .  S
C1194      C1195   1.417       .  A
C1195      C1196   1.396       .  A
C1195      H1199   1.081       .  S
C1196      O1200   1.371       .  S
O1198      H1202   0.992       .  S
O1200      H1201   0.992       .  S
C1203      C1204   1.419       .  A
C1203      C1208   1.435       .  A
C1204      C1205   1.403       .  A
C1204      H1209   1.075       .  S
C1205      C1206   1.403       .  A
C1205      O1210   1.371       .  S
C1206      C1207   1.387       .  A
C1207      C1208   1.398       .  A
C1207      H1211   1.085       .  S
C1208      O1212   1.367       .  S
O1210      H1214   0.992       .  S
O1212      H1213   0.993       .  S
C1215      C1216   1.414       .  A
C1215      C1220   1.420       .  A
C1216      C1217   1.395       .  A
C1216      H1221   1.079       .  S
C1217      C1218   1.420       .  A
C1217      O1222   1.371       .  S
C1218      C1219   1.413       .  A
C1219      C1220   1.397       .  A
C1219      H1223   1.080       .  S
C1220      O1224   1.375       .  S
O1222      H1226   0.992       .  S
O1224      H1225   0.992       .  S
C1227      C1228   1.394       .  A
C1227      C1232   1.407       .  A
C1228      C1229   1.399       .  A
C1228      H1233   1.084       .  S
C1229      C1230   1.433       .  A
C1229      O1234   1.372       .  S
C1230      C1231   1.415       .  A
C1231      C1232   1.400       .  A
C1231      H1235   1.084       .  S
C1232      O1236   1.371       .  S
O1234      H1238   0.993       .  S
O1236      H1237   0.992       .  S
C1239      C1240   1.392       .  A
C1239      C1244   1.399       .  A
C1240      C1241   1.402       .  A
C1240      H1245   1.084       .  S
C1241      C1242   1.431       .  A
C1241      O1246   1.372       .  S
C1242      C1243   1.419       .  A
C1243      C1244   1.398       .  A
C1243      H1247   1.076       .  S
C1244      O1248   1.372       .  S
O1246      H1250   0.993       .  S
O1248      H1249   0.992       .  S
C1251      C1252   1.400       .  A
C1251      C1256   1.407       .  A
C1252      C1253   1.401       .  A
C1252      H1257   1.083       .  S
C1253      C1254   1.426       .  A
C1253      O1258   1.371       .  S
C1254      C1255   1.416       .  A
C1255      C1256   1.401       .  A
C1255      H1259   1.078       .  S
C1256      O1260   1.372       .  S
O1258      H1262   0.992       .  S
O1260      H1261   0.992       .  S
C1263      C1311   1.590       .  S
C1263      C1264   1.427       .  A
C1263      C1268   1.427       .  A
C1264      C1265   1.401       .  A
C1264      H1269   1.079       .  S
C1265      C1266   1.399       .  A
C1265      O1270   1.372       .  S
C1266      C1267   1.391       .  A
C1267      C1268   1.400       .  A
C1267      H1271   1.084       .  S
C1268      O1534   1.364       .  S
O1270      H1274   0.992       .  S
O1272      C1530   1.364       .  S
O1272      H1273   0.993       .  S
C1275      C1311   1.550       .  S
C1275      C1276   1.413       .  A
C1275      C1542   1.427       .  A
C1276      C1277   1.395       .  A
C1276      H1281   1.081       .  S
C1277      C1278   1.403       .  A
C1277      O1282   1.372       .  S
C1278      C1279   1.394       .  A
C1279      C1542   1.399       .  A
C1279      H1545   1.084       .  S
C1280      C1537   1.427   1_554  A
C1280      C1541   1.399   1_554  A
C1280      O1284   1.372       .  S
O1282      H1286   0.992       .  S
H1283      C1541   1.084   1_554  S
O1284      H1285   0.991       .  S
C1287      C1311   1.577       .  S
C1287      C1550   1.422       .  A
C1287      C1292   1.427       .  A
C1288      C1549   1.422   1_554  A
C1288      C1289   1.394   1_554  A
C1288      H1293   1.084       .  S
C1289      C1552   1.403       .  A
C1289      O1294   1.372   1_556  S
C1290      C1551   1.403       .  A
C1290      C1291   1.400       .  A
C1291      C1292   1.402       .  A
C1291      H1295   1.084       .  S
C1292      O1296   1.369       .  S
O1294      H1298   0.992       .  S
O1296      H1297   0.992       .  S
C1299      C1300   1.418       .  A
C1299      C1304   1.425       .  A
C1300      C1301   1.390       .  A
C1300      H1305   1.075       .  S
C1301      C1302   1.417       .  A
C1301      O1306   1.369       .  S
C1302      C1303   1.411       .  A
C1303      C1304   1.402       .  A
C1303      H1307   1.083       .  S
C1304      O1308   1.378       .  S
O1306      H1310   0.992       .  S
O1308      H1309   0.993       .  S
C1311      C1561   1.587       .  S
C1312      C1492   1.568       .  S
C1312      C1504   1.576       .  S
C1312      C1516   1.565       .  S
C1312      C1564   1.557       .  S
C1313      C1441   1.589       .  S
C1313      C1456   1.560       .  S
C1313      C1465   1.594       .  S
C1313      C1477   1.558       .  S
C1314      C1405   1.563       .  S
C1314      C1417   1.561       .  S
C1314      C1429   1.557       .  S
C1314      C1480   1.559       .  S
N1315      N1316   1.321       .  A
N1315      N1321   1.316       .  A
N1316      C1323   1.354       .  A
N1317      N1318   1.322       .  A
N1318      C1324   1.353   1_655  A
N1319      N1320   1.325       .  A
N1321      N1322   1.319       .  A
N1321     Mn1857   2.200   1_545  S
N1322      C1323   1.352       .  A
C1323      C1552   1.478       .  S
C1324      C1379   1.479       .  S
N1325      N1331   1.317       .  A
N1325      N1326   1.317       .  A
N1325     Mn1355   2.194       .  S
N1326      C1334   1.348       .  A
N1327      N1328   1.319       .  A
N1327      N1329   1.317       .  A
N1327     Mn1333   2.192       .  S
N1328      C1335   1.349       .  A
N1329      N1330   1.320       .  A
N1329     Mn1355   2.204       .  S
N1330      C1335   1.355       .  A
N1331      N1332   1.322       .  A
N1331     Mn1333   2.204       .  S
N1332      C1334   1.354       .  A
Mn1333     N1845   2.200       .  S
Mn1333    Cl1881   2.545       .  S
C1334      C1540   1.463       .  S
C1335      C1468   1.475       .  S
N1336      N1337   1.319       .  A
N1336      N1342   1.316       .  A
N1336     Mn1344   2.198       .  S
N1337      C1345   1.354       .  A
N1338      N1340   1.316       .  A
N1338      N1339   1.321       .  A
N1338     Mn1356   2.199       .  S
N1339      C1346   1.353       .  A
N1340      N1341   1.319       .  A
N1340     Mn1344   2.201       .  S
N1341      C1346   1.351       .  A
N1342      N1343   1.319       .  A
N1342     Mn1356   2.200       .  S
N1343      C1345   1.351       .  A
C1345      C1528   1.474       .  S
C1346      C1444   1.476       .  S
N1347      N1348   1.326       .  A
N1347     Mn1355   2.224       .  S
N1348      C1882   1.356       .  A
N1349      N1350   1.319       .  A
N1349      N1351   1.313       .  A
N1349     Mn1880   2.194       .  S
N1350      C1359   1.353       .  A
N1351      N1352   1.320       .  A
N1352      C1359   1.354       .  A
N1353      N1354   1.322       .  A
N1353     Mn1356   2.214       .  S
Mn1355    Cl1881   2.548       .  S
Mn1356     N1873   2.194   1_545  S
Cl1357    Mn1857   2.545   1_545  S
Cl1357    Mn1879   2.548   1_545  S
C1358      N1872   1.356   1_545  A
C1358      C1391   1.482       .  S
C1359      C1453   1.482       .  S
N1360      N1361   1.322       .  A
N1360      N1366   1.317       .  A
N1360     Mn1389   2.217       .  S
N1361      C1368   1.357       .  A
N1362      N1364   1.317       .  A
N1362      N1363   1.323       .  A
N1362     Mn1378   2.209       .  S
N1363      C1369   1.354       .  A
N1364      N1365   1.318       .  A
N1364     Mn1389   2.196       .  S
N1365      C1369   1.348       .  A
N1366      N1367   1.317       .  A
N1366     Mn1378   2.186       .  S
N1367      C1368   1.347       .  A
C1368      C1432   1.473       .  S
C1369      C1501   1.467       .  S
N1370      N1371   1.325       .  A
N1370     Mn1400   2.223       .  S
N1372      N1373   1.321       .  A
N1372      N1374   1.314       .  A
N1372     Mn1902   2.208   1_545  S
N1373      C1380   1.355       .  A
N1374      N1375   1.320       .  A
N1375      C1380   1.354       .  A
N1376      N1377   1.322       .  A
N1376     Mn1378   2.209       .  S
N1377      C1379   1.353   1_655  A
Mn1378     N1896   2.208       .  S
Mn1378    Cl1926   2.549       .  S
C1380      C1513   1.484       .  S
N1381      N1382   1.323       .  A
N1381      N1387   1.315       .  A
N1382      C1390   1.355       .  A
N1383      N1384   1.323       .  A
N1383     Mn1401   2.215       .  S
N1385      N1386   1.325       .  A
N1385     Mn1389   2.222       .  S
N1386      C1915   1.355       .  A
N1387      N1388   1.319       .  A
N1387     Mn1925   2.198       .  S
N1388      C1390   1.352       .  A
Mn1389    Cl1926   2.546       .  S
C1390      C1420   1.479       .  S
C1391      N1910   1.355   1_545  A
N1392      N1393   1.319       .  A
N1392      N1398   1.317       .  A
N1392     Mn1400   2.201       .  S
N1393      C1403   1.349       .  A
N1394      N1395   1.319       .  A
N1394      N1396   1.316       .  A
N1394     Mn1401   2.194       .  S
N1395      C1404   1.350       .  A
N1396      N1397   1.321       .  A
N1396     Mn1400   2.208       .  S
N1397      C1404   1.355       .  A
N1398      N1399   1.322       .  A
N1398     Mn1401   2.204       .  S
N1399      C1403   1.354       .  A
Mn1401     N1911   2.198   1_545  S
Cl1402    Mn1902   2.549   1_545  S
Cl1402    Mn1913   2.546   1_545  S
C1403      C1408   1.466       .  S
C1404      C1489   1.478       .  S
C1405      C1406   1.419       .  A
C1405      C1410   1.431       .  A
C1406      C1407   1.399       .  A
C1406      H1411   1.082       .  S
C1407      C1408   1.397       .  A
C1407      O1412   1.371       .  S
C1408      C1409   1.393       .  A
C1409      C1410   1.400       .  A
C1409      H1413   1.084       .  S
C1410      O1414   1.372       .  S
O1412      H1416   0.992       .  S
O1414      H1415   0.993       .  S
C1417      C1418   1.415       .  A
C1417      C1422   1.423       .  A
C1418      C1419   1.394       .  A
C1418      H1423   1.078       .  S
C1419      C1420   1.404       .  A
C1419      O1424   1.372       .  S
C1420      C1421   1.402       .  A
C1421      C1422   1.406       .  A
C1421      H1425   1.084       .  S
C1422      O1426   1.370       .  S
O1424      H1428   0.992       .  S
O1426      H1427   0.991       .  S
C1429      C1430   1.412       .  A
C1429      C1434   1.423       .  A
C1430      C1431   1.401       .  A
C1430      H1435   1.083       .  S
C1431      C1432   1.409       .  A
C1431      O1436   1.372       .  S
C1432      C1433   1.393       .  A
C1433      C1434   1.398       .  A
C1433      H1437   1.084       .  S
C1434      O1438   1.368       .  S
O1436      H1440   0.992       .  S
O1438      H1439   0.992       .  S
C1441      C1442   1.418       .  A
C1441      C1446   1.443       .  A
C1442      C1443   1.399       .  A
C1442      H1447   1.064       .  S
C1443      C1444   1.400       .  A
C1443      O1448   1.372       .  S
C1444      C1445   1.390       .  A
C1445      C1446   1.402       .  A
C1445      H1449   1.084       .  S
C1446      O1450   1.374       .  S
O1448      H1452   0.992       .  S
O1450      H1451   0.993       .  S
C1453      C1454   1.400       .  A
C1453      C1458   1.405       .  A
C1454      C1455   1.400       .  A
C1454      H1459   1.084       .  S
C1455      C1456   1.426       .  A
C1455      O1460   1.370       .  S
C1456      C1457   1.417       .  A
C1457      C1458   1.396       .  A
C1457      H1461   1.081       .  S
C1458      O1462   1.371       .  S
O1460      H1464   0.992       .  S
O1462      H1463   0.992       .  S
C1465      C1466   1.419       .  A
C1465      C1470   1.435       .  A
C1466      C1467   1.403       .  A
C1466      H1471   1.075       .  S
C1467      C1468   1.403       .  A
C1467      O1472   1.371       .  S
C1468      C1469   1.387       .  A
C1469      C1470   1.398       .  A
C1469      H1473   1.085       .  S
C1470      O1474   1.367       .  S
O1472      H1476   0.992       .  S
O1474      H1475   0.993       .  S
C1477      C1478   1.414       .  A
C1477      C1482   1.420       .  A
C1478      C1479   1.395       .  A
C1478      H1483   1.079       .  S
C1479      C1480   1.420       .  A
C1479      O1484   1.371       .  S
C1480      C1481   1.413       .  A
C1481      C1482   1.397       .  A
C1481      H1485   1.080       .  S
C1482      O1486   1.375       .  S
O1484      H1488   0.992       .  S
O1486      H1487   0.992       .  S
C1489      C1490   1.394       .  A
C1489      C1494   1.407       .  A
C1490      C1491   1.399       .  A
C1490      H1495   1.084       .  S
C1491      C1492   1.433       .  A
C1491      O1496   1.372       .  S
C1492      C1493   1.415       .  A
C1493      C1494   1.400       .  A
C1493      H1497   1.084       .  S
C1494      O1498   1.371       .  S
O1496      H1500   0.993       .  S
O1498      H1499   0.992       .  S
C1501      C1502   1.392       .  A
C1501      C1506   1.399       .  A
C1502      C1503   1.402       .  A
C1502      H1507   1.084       .  S
C1503      C1504   1.431       .  A
C1503      O1508   1.372       .  S
C1504      C1505   1.419       .  A
C1505      C1506   1.398       .  A
C1505      H1509   1.076       .  S
C1506      O1510   1.372       .  S
O1508      H1512   0.993       .  S
O1510      H1511   0.992       .  S
C1513      C1514   1.400       .  A
C1513      C1518   1.407       .  A
C1514      C1515   1.401       .  A
C1514      H1519   1.083       .  S
C1515      C1516   1.426       .  A
C1515      O1520   1.371       .  S
C1516      C1517   1.416       .  A
C1517      C1518   1.401       .  A
C1517      H1521   1.078       .  S
C1518      O1522   1.372       .  S
O1520      H1524   0.992       .  S
O1522      H1523   0.992       .  S
C1525      C1526   1.427       .  A
C1525      C1530   1.427   1_556  A
C1526      C1527   1.401       .  A
C1526      H1531   1.079       .  S
C1527      C1528   1.399       .  A
C1527      O1532   1.372       .  S
C1528      C1529   1.391       .  A
C1529      C1530   1.400   1_556  A
C1529      H1533   1.084   1_556  S
O1532      H1536   0.992       .  S
O1534      H1535   0.993       .  S
C1537      C1538   1.413       .  A
C1538      C1539   1.395       .  A
C1538      H1543   1.081       .  S
C1539      C1540   1.403       .  A
C1539      O1544   1.372       .  S
C1540      C1541   1.394       .  A
C1542      O1546   1.372       .  S
O1544      H1548   0.992       .  S
O1546      H1547   0.991       .  S
C1549      C1554   1.427       .  A
C1550      C1551   1.395       .  A
C1550      H1555   1.084       .  S
C1551      O1556   1.372       .  S
C1552      C1553   1.400       .  A
C1553      C1554   1.402       .  A
C1553      H1557   1.084       .  S
C1554      O1558   1.369       .  S
O1556      H1560   0.992       .  S
O1558      H1559   0.992       .  S
C1561      C1562   1.418       .  A
C1561      C1566   1.425       .  A
C1562      C1563   1.390       .  A
C1562      H1567   1.075       .  S
C1563      C1564   1.417       .  A
C1563      O1568   1.369       .  S
C1564      C1565   1.411       .  A
C1565      C1566   1.402       .  A
C1565      H1569   1.083       .  S
C1566      O1570   1.378       .  S
O1568      H1572   0.992       .  S
O1570      H1571   0.993       .  S
C1573      C2049   1.590   1_554  S
C1573      C2061   1.550   1_554  S
C1573      C2073   1.577   1_554  S
C1573      C1823   1.587       .  S
C1574      C1754   1.568       .  S
C1574      C1766   1.576       .  S
C1574      C1778   1.565       .  S
C1574      C1826   1.557       .  S
C1575      C1703   1.589       .  S
C1575      C1718   1.560       .  S
C1575      C1727   1.594       .  S
C1575      C1739   1.558       .  S
C1576      C1667   1.563       .  S
C1576      C1679   1.561       .  S
C1576      C1691   1.557       .  S
C1576      C1742   1.559       .  S
N1577      N1578   1.321       .  A
N1577      N1583   1.316       .  A
N1578      C1585   1.354       .  A
N1579      N1580   1.322       .  A
N1579     Mn1857   2.208   1_554  S
N1580      C1586   1.353   1_665  A
N1581      N1582   1.325       .  A
N1581     Mn1868   2.220   1_554  S
N1583      N1584   1.319       .  A
N1584      C1585   1.352       .  A
C1585      C1814   1.478       .  S
C1586      C1641   1.479       .  S
N1587      N1593   1.317       .  A
N1587      N1588   1.317       .  A
N1587     Mn1617   2.194       .  S
N1588      C1596   1.348       .  A
N1589      N1590   1.319       .  A
N1589      N1591   1.317       .  A
N1589     Mn1595   2.192       .  S
N1590      C1597   1.349       .  A
N1591      N1592   1.320       .  A
N1591     Mn1617   2.204       .  S
N1592      C1597   1.355       .  A
N1593      N1594   1.322       .  A
N1593     Mn1595   2.204       .  S
N1594      C1596   1.354       .  A
Mn1595     N1841   2.208       .  S
C1596      C1802   1.463       .  S
C1597      C1730   1.475       .  S
N1598      N1599   1.319       .  A
N1598      N1604   1.316       .  A
N1598     Mn1606   2.198       .  S
N1599      C1607   1.354       .  A
N1600      N1602   1.316       .  A
N1600      N1601   1.321       .  A
N1600     Mn1618   2.199       .  S
N1601      C1608   1.353       .  A
N1602      N1603   1.319       .  A
N1602     Mn1606   2.201       .  S
N1603      C1608   1.351       .  A
N1604      N1605   1.319       .  A
N1604     Mn1618   2.200       .  S
N1605      C1607   1.351       .  A
Mn1606     N1843   2.220       .  S
C1607      C1790   1.474       .  S
C1608      C1706   1.476       .  S
N1609      N1610   1.326       .  A
N1609     Mn1617   2.224       .  S
N1611      N1612   1.319       .  A
N1611      N1613   1.313       .  A
N1612      C1621   1.353       .  A
N1613      N1614   1.320       .  A
N1614      C1621   1.354       .  A
N1615      N1616   1.322       .  A
N1615     Mn1618   2.214       .  S
C1620      C1653   1.482       .  S
C1621      C1715   1.482       .  S
N1622      N1623   1.322       .  A
N1622      N1628   1.317       .  A
N1622     Mn1651   2.217       .  S
N1623      C1630   1.357       .  A
N1624      N1626   1.317       .  A
N1624      N1625   1.323       .  A
N1624     Mn1640   2.209       .  S
N1625      C1631   1.354       .  A
N1626      N1627   1.318       .  A
N1626     Mn1651   2.196       .  S
N1627      C1631   1.348       .  A
N1628      N1629   1.317       .  A
N1628     Mn1640   2.186       .  S
N1629      C1630   1.347       .  A
C1630      C1694   1.473       .  S
C1631      C1763   1.467       .  S
N1632      N1633   1.325       .  A
N1632     Mn1662   2.223       .  S
N1634      N1635   1.321       .  A
N1634      N1636   1.314       .  A
N1635      C1642   1.355       .  A
N1636      N1637   1.320       .  A
N1637      C1642   1.354       .  A
N1638      N1639   1.322       .  A
N1638     Mn1640   2.209       .  S
N1639      C1641   1.353   1_665  A
C1642      C1775   1.484       .  S
N1643      N1644   1.323       .  A
N1643      N1649   1.315       .  A
N1644      C1652   1.355       .  A
N1645      N1646   1.323       .  A
N1645     Mn1663   2.215       .  S
N1647      N1648   1.325       .  A
N1647     Mn1651   2.222       .  S
N1649      N1650   1.319       .  A
N1650      C1652   1.352       .  A
C1652      C1682   1.479       .  S
N1654      N1655   1.319       .  A
N1654      N1660   1.317       .  A
N1654     Mn1662   2.201       .  S
N1655      C1665   1.349       .  A
N1656      N1657   1.319       .  A
N1656      N1658   1.316       .  A
N1656     Mn1663   2.194       .  S
N1657      C1666   1.350       .  A
N1658      N1659   1.321       .  A
N1658     Mn1662   2.208       .  S
N1659      C1666   1.355       .  A
N1660      N1661   1.322       .  A
N1660     Mn1663   2.204       .  S
N1661      C1665   1.354       .  A
C1665      C1670   1.466       .  S
C1666      C1751   1.478       .  S
C1667      C1668   1.419       .  A
C1667      C1672   1.431       .  A
C1668      C1669   1.399       .  A
C1668      H1673   1.082       .  S
C1669      C1670   1.397       .  A
C1669      O1674   1.371       .  S
C1670      C1671   1.393       .  A
C1671      C1672   1.400       .  A
C1671      H1675   1.084       .  S
C1672      O1676   1.372       .  S
O1674      H1678   0.992       .  S
O1676      H1677   0.993       .  S
C1679      C1680   1.415       .  A
C1679      C1684   1.423       .  A
C1680      C1681   1.394       .  A
C1680      H1685   1.078       .  S
C1681      C1682   1.404       .  A
C1681      O1686   1.372       .  S
C1682      C1683   1.402       .  A
C1683      C1684   1.406       .  A
C1683      H1687   1.084       .  S
C1684      O1688   1.370       .  S
O1686      H1690   0.992       .  S
O1688      H1689   0.991       .  S
C1691      C1692   1.412       .  A
C1691      C1696   1.423       .  A
C1692      C1693   1.401       .  A
C1692      H1697   1.083       .  S
C1693      C1694   1.409       .  A
C1693      O1698   1.372       .  S
C1694      C1695   1.393       .  A
C1695      C1696   1.398       .  A
C1695      H1699   1.084       .  S
C1696      O1700   1.368       .  S
O1698      H1702   0.992       .  S
O1700      H1701   0.992       .  S
C1703      C1704   1.418       .  A
C1703      C1708   1.443       .  A
C1704      C1705   1.399       .  A
C1704      H1709   1.064       .  S
C1705      C1706   1.400       .  A
C1705      O1710   1.372       .  S
C1706      C1707   1.390       .  A
C1707      C1708   1.402       .  A
C1707      H1711   1.084       .  S
C1708      O1712   1.374       .  S
O1710      H1714   0.992       .  S
O1712      H1713   0.993       .  S
C1715      C1716   1.400       .  A
C1715      C1720   1.405       .  A
C1716      C1717   1.400       .  A
C1716      H1721   1.084       .  S
C1717      C1718   1.426       .  A
C1717      O1722   1.370       .  S
C1718      C1719   1.417       .  A
C1719      C1720   1.396       .  A
C1719      H1723   1.081       .  S
C1720      O1724   1.371       .  S
O1722      H1726   0.992       .  S
O1724      H1725   0.992       .  S
C1727      C1728   1.419       .  A
C1727      C1732   1.435       .  A
C1728      C1729   1.403       .  A
C1728      H1733   1.075       .  S
C1729      C1730   1.403       .  A
C1729      O1734   1.371       .  S
C1730      C1731   1.387       .  A
C1731      C1732   1.398       .  A
C1731      H1735   1.085       .  S
C1732      O1736   1.367       .  S
O1734      H1738   0.992       .  S
O1736      H1737   0.993       .  S
C1739      C1740   1.414       .  A
C1739      C1744   1.420       .  A
C1740      C1741   1.395       .  A
C1740      H1745   1.079       .  S
C1741      C1742   1.420       .  A
C1741      O1746   1.371       .  S
C1742      C1743   1.413       .  A
C1743      C1744   1.397       .  A
C1743      H1747   1.080       .  S
C1744      O1748   1.375       .  S
O1746      H1750   0.992       .  S
O1748      H1749   0.992       .  S
C1751      C1752   1.394       .  A
C1751      C1756   1.407       .  A
C1752      C1753   1.399       .  A
C1752      H1757   1.084       .  S
C1753      C1754   1.433       .  A
C1753      O1758   1.372       .  S
C1754      C1755   1.415       .  A
C1755      C1756   1.400       .  A
C1755      H1759   1.084       .  S
C1756      O1760   1.371       .  S
O1758      H1762   0.993       .  S
O1760      H1761   0.992       .  S
C1763      C1764   1.392       .  A
C1763      C1768   1.399       .  A
C1764      C1765   1.402       .  A
C1764      H1769   1.084       .  S
C1765      C1766   1.431       .  A
C1765      O1770   1.372       .  S
C1766      C1767   1.419       .  A
C1767      C1768   1.398       .  A
C1767      H1771   1.076       .  S
C1768      O1772   1.372       .  S
O1770      H1774   0.993       .  S
O1772      H1773   0.992       .  S
C1775      C1776   1.400       .  A
C1775      C1780   1.407       .  A
C1776      C1777   1.401       .  A
C1776      H1781   1.083       .  S
C1777      C1778   1.426       .  A
C1777      O1782   1.371       .  S
C1778      C1779   1.416       .  A
C1779      C1780   1.401       .  A
C1779      H1783   1.078       .  S
C1780      O1784   1.372       .  S
O1782      H1786   0.992       .  S
O1784      H1785   0.992       .  S
C1787      C1835   1.590       .  S
C1787      C1788   1.427       .  A
C1787      C1792   1.427       .  A
C1788      C1789   1.401       .  A
C1788      H1793   1.079       .  S
C1789      C1790   1.399       .  A
C1789      O1794   1.372       .  S
C1790      C1791   1.391       .  A
C1791      C1792   1.400       .  A
C1791      H1795   1.084       .  S
C1792      O2058   1.364       .  S
O1794      H1798   0.992       .  S
O1796      C2054   1.364       .  S
O1796      H1797   0.993       .  S
C1799      C1835   1.550       .  S
C1799      C1800   1.413       .  A
C1799      C2066   1.427       .  A
C1800      C1801   1.395       .  A
C1800      H1805   1.081       .  S
C1801      C1802   1.403       .  A
C1801      O1806   1.372       .  S
C1802      C1803   1.394       .  A
C1803      C2066   1.399       .  A
C1803      H2069   1.084       .  S
C1804      C2061   1.427   1_554  A
C1804      C2065   1.399   1_554  A
C1804      O1808   1.372       .  S
O1806      H1810   0.992       .  S
H1807      C2065   1.084   1_554  S
O1808      H1809   0.991       .  S
C1811      C1835   1.577       .  S
C1811      C2074   1.422       .  A
C1811      C1816   1.427       .  A
C1812      C2073   1.422   1_554  A
C1812      C1813   1.394   1_554  A
C1812      H1817   1.084       .  S
C1813      C2076   1.403       .  A
C1813      O1818   1.372   1_556  S
C1814      C2075   1.403       .  A
C1814      C1815   1.400       .  A
C1815      C1816   1.402       .  A
C1815      H1819   1.084       .  S
C1816      O1820   1.369       .  S
O1818      H1822   0.992       .  S
O1820      H1821   0.992       .  S
C1823      C1824   1.418       .  A
C1823      C1828   1.425       .  A
C1824      C1825   1.390       .  A
C1824      H1829   1.075       .  S
C1825      C1826   1.417       .  A
C1825      O1830   1.369       .  S
C1826      C1827   1.411       .  A
C1827      C1828   1.402       .  A
C1827      H1831   1.083       .  S
C1828      O1832   1.378       .  S
O1830      H1834   0.992       .  S
O1832      H1833   0.993       .  S
C1835      C2085   1.587       .  S
C1836      C2016   1.568       .  S
C1836      C2028   1.576       .  S
C1836      C2040   1.565       .  S
C1836      C2088   1.557       .  S
C1837      C1965   1.589       .  S
C1837      C1980   1.560       .  S
C1837      C1989   1.594       .  S
C1837      C2001   1.558       .  S
C1838      C1929   1.563       .  S
C1838      C1941   1.561       .  S
C1838      C1953   1.557       .  S
C1838      C2004   1.559       .  S
N1839      N1840   1.321       .  A
N1839      N1845   1.316       .  A
N1840      C1847   1.354       .  A
N1841      N1842   1.322       .  A
N1842      C1848   1.353   1_665  A
N1843      N1844   1.325       .  A
N1845      N1846   1.319       .  A
N1846      C1847   1.352       .  A
C1847      C2076   1.478       .  S
C1848      C1903   1.479       .  S
N1849      N1855   1.317       .  A
N1849      N1850   1.317       .  A
N1849     Mn1879   2.194       .  S
N1850      C1858   1.348       .  A
N1851      N1852   1.319       .  A
N1851      N1853   1.317       .  A
N1851     Mn1857   2.192       .  S
N1852      C1859   1.349       .  A
N1853      N1854   1.320       .  A
N1853     Mn1879   2.204       .  S
N1854      C1859   1.355       .  A
N1855      N1856   1.322       .  A
N1855     Mn1857   2.204       .  S
N1856      C1858   1.354       .  A
C1858      C2064   1.463       .  S
C1859      C1992   1.475       .  S
N1860      N1861   1.319       .  A
N1860      N1866   1.316       .  A
N1860     Mn1868   2.198       .  S
N1861      C1869   1.354       .  A
N1862      N1864   1.316       .  A
N1862      N1863   1.321       .  A
N1862     Mn1880   2.199       .  S
N1863      C1870   1.353       .  A
N1864      N1865   1.319       .  A
N1864     Mn1868   2.201       .  S
N1865      C1870   1.351       .  A
N1866      N1867   1.319       .  A
N1866     Mn1880   2.200       .  S
N1867      C1869   1.351       .  A
C1869      C2052   1.474       .  S
C1870      C1968   1.476       .  S
N1871      N1872   1.326       .  A
N1871     Mn1879   2.224       .  S
N1873      N1874   1.319       .  A
N1873      N1875   1.313       .  A
N1874      C1883   1.353       .  A
N1875      N1876   1.320       .  A
N1876      C1883   1.354       .  A
N1877      N1878   1.322       .  A
N1877     Mn1880   2.214       .  S
C1882      C1915   1.482       .  S
C1883      C1977   1.482       .  S
N1884      N1885   1.322       .  A
N1884      N1890   1.317       .  A
N1884     Mn1913   2.217       .  S
N1885      C1892   1.357       .  A
N1886      N1888   1.317       .  A
N1886      N1887   1.323       .  A
N1886     Mn1902   2.209       .  S
N1887      C1893   1.354       .  A
N1888      N1889   1.318       .  A
N1888     Mn1913   2.196       .  S
N1889      C1893   1.348       .  A
N1890      N1891   1.317       .  A
N1890     Mn1902   2.186       .  S
N1891      C1892   1.347       .  A
C1892      C1956   1.473       .  S
C1893      C2025   1.467       .  S
N1894      N1895   1.325       .  A
N1894     Mn1924   2.223       .  S
N1896      N1897   1.321       .  A
N1896      N1898   1.314       .  A
N1897      C1904   1.355       .  A
N1898      N1899   1.320       .  A
N1899      C1904   1.354       .  A
N1900      N1901   1.322       .  A
N1900     Mn1902   2.209       .  S
N1901      C1903   1.353   1_665  A
C1904      C2037   1.484       .  S
N1905      N1906   1.323       .  A
N1905      N1911   1.315       .  A
N1906      C1914   1.355       .  A
N1907      N1908   1.323       .  A
N1907     Mn1925   2.215       .  S
N1909      N1910   1.325       .  A
N1909     Mn1913   2.222       .  S
N1911      N1912   1.319       .  A
N1912      C1914   1.352       .  A
C1914      C1944   1.479       .  S
N1916      N1917   1.319       .  A
N1916      N1922   1.317       .  A
N1916     Mn1924   2.201       .  S
N1917      C1927   1.349       .  A
N1918      N1919   1.319       .  A
N1918      N1920   1.316       .  A
N1918     Mn1925   2.194       .  S
N1919      C1928   1.350       .  A
N1920      N1921   1.321       .  A
N1920     Mn1924   2.208       .  S
N1921      C1928   1.355       .  A
N1922      N1923   1.322       .  A
N1922     Mn1925   2.204       .  S
N1923      C1927   1.354       .  A
C1927      C1932   1.466       .  S
C1928      C2013   1.478       .  S
C1929      C1930   1.419       .  A
C1929      C1934   1.431       .  A
C1930      C1931   1.399       .  A
C1930      H1935   1.082       .  S
C1931      C1932   1.397       .  A
C1931      O1936   1.371       .  S
C1932      C1933   1.393       .  A
C1933      C1934   1.400       .  A
C1933      H1937   1.084       .  S
C1934      O1938   1.372       .  S
O1936      H1940   0.992       .  S
O1938      H1939   0.993       .  S
C1941      C1942   1.415       .  A
C1941      C1946   1.423       .  A
C1942      C1943   1.394       .  A
C1942      H1947   1.078       .  S
C1943      C1944   1.404       .  A
C1943      O1948   1.372       .  S
C1944      C1945   1.402       .  A
C1945      C1946   1.406       .  A
C1945      H1949   1.084       .  S
C1946      O1950   1.370       .  S
O1948      H1952   0.992       .  S
O1950      H1951   0.991       .  S
C1953      C1954   1.412       .  A
C1953      C1958   1.423       .  A
C1954      C1955   1.401       .  A
C1954      H1959   1.083       .  S
C1955      C1956   1.409       .  A
C1955      O1960   1.372       .  S
C1956      C1957   1.393       .  A
C1957      C1958   1.398       .  A
C1957      H1961   1.084       .  S
C1958      O1962   1.368       .  S
O1960      H1964   0.992       .  S
O1962      H1963   0.992       .  S
C1965      C1966   1.418       .  A
C1965      C1970   1.443       .  A
C1966      C1967   1.399       .  A
C1966      H1971   1.064       .  S
C1967      C1968   1.400       .  A
C1967      O1972   1.372       .  S
C1968      C1969   1.390       .  A
C1969      C1970   1.402       .  A
C1969      H1973   1.084       .  S
C1970      O1974   1.374       .  S
O1972      H1976   0.992       .  S
O1974      H1975   0.993       .  S
C1977      C1978   1.400       .  A
C1977      C1982   1.405       .  A
C1978      C1979   1.400       .  A
C1978      H1983   1.084       .  S
C1979      C1980   1.426       .  A
C1979      O1984   1.370       .  S
C1980      C1981   1.417       .  A
C1981      C1982   1.396       .  A
C1981      H1985   1.081       .  S
C1982      O1986   1.371       .  S
O1984      H1988   0.992       .  S
O1986      H1987   0.992       .  S
C1989      C1990   1.419       .  A
C1989      C1994   1.435       .  A
C1990      C1991   1.403       .  A
C1990      H1995   1.075       .  S
C1991      C1992   1.403       .  A
C1991      O1996   1.371       .  S
C1992      C1993   1.387       .  A
C1993      C1994   1.398       .  A
C1993      H1997   1.085       .  S
C1994      O1998   1.367       .  S
O1996      H2000   0.992       .  S
O1998      H1999   0.993       .  S
C2001      C2002   1.414       .  A
C2001      C2006   1.420       .  A
C2002      C2003   1.395       .  A
C2002      H2007   1.079       .  S
C2003      C2004   1.420       .  A
C2003      O2008   1.371       .  S
C2004      C2005   1.413       .  A
C2005      C2006   1.397       .  A
C2005      H2009   1.080       .  S
C2006      O2010   1.375       .  S
O2008      H2012   0.992       .  S
O2010      H2011   0.992       .  S
C2013      C2014   1.394       .  A
C2013      C2018   1.407       .  A
C2014      C2015   1.399       .  A
C2014      H2019   1.084       .  S
C2015      C2016   1.433       .  A
C2015      O2020   1.372       .  S
C2016      C2017   1.415       .  A
C2017      C2018   1.400       .  A
C2017      H2021   1.084       .  S
C2018      O2022   1.371       .  S
O2020      H2024   0.993       .  S
O2022      H2023   0.992       .  S
C2025      C2026   1.392       .  A
C2025      C2030   1.399       .  A
C2026      C2027   1.402       .  A
C2026      H2031   1.084       .  S
C2027      C2028   1.431       .  A
C2027      O2032   1.372       .  S
C2028      C2029   1.419       .  A
C2029      C2030   1.398       .  A
C2029      H2033   1.076       .  S
C2030      O2034   1.372       .  S
O2032      H2036   0.993       .  S
O2034      H2035   0.992       .  S
C2037      C2038   1.400       .  A
C2037      C2042   1.407       .  A
C2038      C2039   1.401       .  A
C2038      H2043   1.083       .  S
C2039      C2040   1.426       .  A
C2039      O2044   1.371       .  S
C2040      C2041   1.416       .  A
C2041      C2042   1.401       .  A
C2041      H2045   1.078       .  S
C2042      O2046   1.372       .  S
O2044      H2048   0.992       .  S
O2046      H2047   0.992       .  S
C2049      C2050   1.427       .  A
C2049      C2054   1.427   1_556  A
C2050      C2051   1.401       .  A
C2050      H2055   1.079       .  S
C2051      C2052   1.399       .  A
C2051      O2056   1.372       .  S
C2052      C2053   1.391       .  A
C2053      C2054   1.400   1_556  A
C2053      H2057   1.084   1_556  S
O2056      H2060   0.992       .  S
O2058      H2059   0.993       .  S
C2061      C2062   1.413       .  A
C2062      C2063   1.395       .  A
C2062      H2067   1.081       .  S
C2063      C2064   1.403       .  A
C2063      O2068   1.372       .  S
C2064      C2065   1.394       .  A
C2066      O2070   1.372       .  S
O2068      H2072   0.992       .  S
O2070      H2071   0.991       .  S
C2073      C2078   1.427       .  A
C2074      C2075   1.395       .  A
C2074      H2079   1.084       .  S
C2075      O2080   1.372       .  S
C2076      C2077   1.400       .  A
C2077      C2078   1.402       .  A
C2077      H2081   1.084       .  S
C2078      O2082   1.369       .  S
O2080      H2084   0.992       .  S
O2082      H2083   0.992       .  S
C2085      C2086   1.418       .  A
C2085      C2090   1.425       .  A
C2086      C2087   1.390       .  A
C2086      H2091   1.075       .  S
C2087      C2088   1.417       .  A
C2087      O2092   1.369       .  S
C2088      C2089   1.411       .  A
C2089      C2090   1.402       .  A
C2089      H2093   1.083       .  S
C2090      O2094   1.378       .  S
O2092      H2096   0.992       .  S
O2094      H2095   0.993       .  S
